REMARK  Name = ../refined-set-2016/1h23/1h23_pocket.pdb
REMARK  278 active torsions:
REMARK  status: ('A' for Active; 'I' for Inactive)
REMARK    1  A    between atoms: _1  and  _3
REMARK    2  A    between atoms: _3  and  _4
REMARK    3  A    between atoms: _3  and  _6
REMARK    4  A    between atoms: _6  and  _7
REMARK    5  A    between atoms: _7  and  _8
REMARK    6  A    between atoms: _13  and  _15
REMARK    7  A    between atoms: _15  and  _16
REMARK    8  A    between atoms: _15  and  _18
REMARK    9  A    between atoms: _18  and  _19
REMARK   10  A    between atoms: _24  and  _25
REMARK   11  A    between atoms: _27  and  _29
REMARK   12  A    between atoms: _29  and  _30
REMARK   13  A    between atoms: _29  and  _32
REMARK   14  A    between atoms: _35  and  _37
REMARK   15  A    between atoms: _37  and  _38
REMARK   16  A    between atoms: _37  and  _40
REMARK   17  A    between atoms: _40  and  _41
REMARK   18  A    between atoms: _44  and  _46
REMARK   19  A    between atoms: _46  and  _47
REMARK   20  A    between atoms: _46  and  _49
REMARK   21  A    between atoms: _49  and  _50
REMARK   22  A    between atoms: _50  and  _51
REMARK   23  A    between atoms: _54  and  _56
REMARK   24  A    between atoms: _56  and  _57
REMARK   25  A    between atoms: _56  and  _59
REMARK   26  A    between atoms: _59  and  _60
REMARK   27  A    between atoms: _60  and  _61
REMARK   28  A    between atoms: _66  and  _68
REMARK   29  A    between atoms: _68  and  _69
REMARK   30  A    between atoms: _68  and  _71
REMARK   31  A    between atoms: _71  and  _72
REMARK   32  A    between atoms: _78  and  _80
REMARK   33  A    between atoms: _80  and  _81
REMARK   34  A    between atoms: _83  and  _85
REMARK   35  A    between atoms: _85  and  _86
REMARK   36  A    between atoms: _85  and  _88
REMARK   37  A    between atoms: _88  and  _89
REMARK   38  A    between atoms: _91  and  _93
REMARK   39  A    between atoms: _93  and  _94
REMARK   40  A    between atoms: _93  and  _96
REMARK   41  A    between atoms: _96  and  _97
REMARK   42  A    between atoms: _97  and  _98
REMARK   43  A    between atoms: _100  and  _102
REMARK   44  A    between atoms: _102  and  _103
REMARK   45  A    between atoms: _102  and  _105
REMARK   46  A    between atoms: _105  and  _106
REMARK   47  A    between atoms: _116  and  _118
REMARK   48  A    between atoms: _118  and  _119
REMARK   49  A    between atoms: _118  and  _121
REMARK   50  A    between atoms: _121  and  _122
REMARK   51  A    between atoms: _128  and  _129
REMARK   52  A    between atoms: _134  and  _136
REMARK   53  A    between atoms: _136  and  _137
REMARK   54  A    between atoms: _136  and  _139
REMARK   55  A    between atoms: _139  and  _140
REMARK   56  A    between atoms: _150  and  _152
REMARK   57  A    between atoms: _152  and  _153
REMARK   58  A    between atoms: _152  and  _155
REMARK   59  A    between atoms: _155  and  _156
REMARK   60  A    between atoms: _159  and  _161
REMARK   61  A    between atoms: _161  and  _162
REMARK   62  A    between atoms: _161  and  _164
REMARK   63  A    between atoms: _164  and  _165
REMARK   64  A    between atoms: _170  and  _171
REMARK   65  A    between atoms: _173  and  _175
REMARK   66  A    between atoms: _175  and  _176
REMARK   67  A    between atoms: _178  and  _180
REMARK   68  A    between atoms: _180  and  _181
REMARK   69  A    between atoms: _183  and  _185
REMARK   70  A    between atoms: _185  and  _186
REMARK   71  A    between atoms: _188  and  _190
REMARK   72  A    between atoms: _190  and  _191
REMARK   73  A    between atoms: _190  and  _193
REMARK   74  A    between atoms: _193  and  _194
REMARK   75  A    between atoms: _200  and  _202
REMARK   76  A    between atoms: _202  and  _203
REMARK   77  A    between atoms: _202  and  _205
REMARK   78  A    between atoms: _205  and  _206
REMARK   79  A    between atoms: _211  and  _212
REMARK   80  A    between atoms: _214  and  _216
REMARK   81  A    between atoms: _216  and  _217
REMARK   82  A    between atoms: _216  and  _219
REMARK   83  A    between atoms: _219  and  _220
REMARK   84  A    between atoms: _222  and  _224
REMARK   85  A    between atoms: _224  and  _225
REMARK   86  A    between atoms: _227  and  _229
REMARK   87  A    between atoms: _229  and  _230
REMARK   88  A    between atoms: _229  and  _232
REMARK   89  A    between atoms: _232  and  _233
REMARK   90  A    between atoms: _235  and  _237
REMARK   91  A    between atoms: _237  and  _238
REMARK   92  A    between atoms: _237  and  _240
REMARK   93  A    between atoms: _240  and  _241
REMARK   94  A    between atoms: _243  and  _245
REMARK   95  A    between atoms: _245  and  _246
REMARK   96  A    between atoms: _245  and  _248
REMARK   97  A    between atoms: _248  and  _249
REMARK   98  A    between atoms: _252  and  _254
REMARK   99  A    between atoms: _254  and  _255
REMARK  100  A    between atoms: _254  and  _257
REMARK  101  A    between atoms: _257  and  _258
REMARK  102  A    between atoms: _261  and  _263
REMARK  103  A    between atoms: _263  and  _264
REMARK  104  A    between atoms: _263  and  _266
REMARK  105  A    between atoms: _269  and  _271
REMARK  106  A    between atoms: _271  and  _272
REMARK  107  A    between atoms: _271  and  _274
REMARK  108  A    between atoms: _274  and  _275
REMARK  109  A    between atoms: _280  and  _281
REMARK  110  A    between atoms: _283  and  _285
REMARK  111  A    between atoms: _285  and  _286
REMARK  112  A    between atoms: _285  and  _288
REMARK  113  A    between atoms: _288  and  _289
REMARK  114  A    between atoms: _294  and  _295
REMARK  115  A    between atoms: _297  and  _299
REMARK  116  A    between atoms: _299  and  _300
REMARK  117  A    between atoms: _299  and  _302
REMARK  118  A    between atoms: _305  and  _307
REMARK  119  A    between atoms: _307  and  _308
REMARK  120  A    between atoms: _307  and  _310
REMARK  121  A    between atoms: _310  and  _311
REMARK  122  A    between atoms: _311  and  _312
REMARK  123  A    between atoms: _315  and  _317
REMARK  124  A    between atoms: _317  and  _318
REMARK  125  A    between atoms: _317  and  _320
REMARK  126  A    between atoms: _320  and  _321
REMARK  127  A    between atoms: _323  and  _325
REMARK  128  A    between atoms: _325  and  _326
REMARK  129  A    between atoms: _329  and  _331
REMARK  130  A    between atoms: _331  and  _332
REMARK  131  A    between atoms: _334  and  _336
REMARK  132  A    between atoms: _336  and  _337
REMARK  133  A    between atoms: _336  and  _339
REMARK  134  A    between atoms: _339  and  _340
REMARK  135  A    between atoms: _340  and  _341
REMARK  136  A    between atoms: _346  and  _348
REMARK  137  A    between atoms: _348  and  _349
REMARK  138  A    between atoms: _348  and  _351
REMARK  139  A    between atoms: _351  and  _352
REMARK  140  A    between atoms: _354  and  _356
REMARK  141  A    between atoms: _356  and  _357
REMARK  142  A    between atoms: _356  and  _359
REMARK  143  A    between atoms: _359  and  _360
REMARK  144  A    between atoms: _360  and  _361
REMARK  145  A    between atoms: _364  and  _366
REMARK  146  A    between atoms: _366  and  _367
REMARK  147  A    between atoms: _366  and  _369
REMARK  148  A    between atoms: _369  and  _370
REMARK  149  A    between atoms: _380  and  _382
REMARK  150  A    between atoms: _382  and  _383
REMARK  151  A    between atoms: _382  and  _385
REMARK  152  A    between atoms: _385  and  _386
REMARK  153  A    between atoms: _391  and  _393
REMARK  154  A    between atoms: _393  and  _394
REMARK  155  A    between atoms: _393  and  _396
REMARK  156  A    between atoms: _396  and  _397
REMARK  157  A    between atoms: _400  and  _402
REMARK  158  A    between atoms: _402  and  _403
REMARK  159  A    between atoms: _402  and  _405
REMARK  160  A    between atoms: _405  and  _406
REMARK  161  A    between atoms: _412  and  _414
REMARK  162  A    between atoms: _414  and  _415
REMARK  163  A    between atoms: _414  and  _417
REMARK  164  A    between atoms: _417  and  _418
REMARK  165  A    between atoms: _421  and  _423
REMARK  166  A    between atoms: _423  and  _424
REMARK  167  A    between atoms: _423  and  _426
REMARK  168  A    between atoms: _426  and  _427
REMARK  169  A    between atoms: _429  and  _431
REMARK  170  A    between atoms: _431  and  _432
REMARK  171  A    between atoms: _431  and  _434
REMARK  172  A    between atoms: _434  and  _435
REMARK  173  A    between atoms: _438  and  _440
REMARK  174  A    between atoms: _440  and  _441
REMARK  175  A    between atoms: _440  and  _443
REMARK  176  A    between atoms: _443  and  _444
REMARK  177  A    between atoms: _450  and  _452
REMARK  178  A    between atoms: _452  and  _453
REMARK  179  A    between atoms: _452  and  _455
REMARK  180  A    between atoms: _455  and  _456
REMARK  181  A    between atoms: _456  and  _457
REMARK  182  A    between atoms: _457  and  _458
REMARK  183  A    between atoms: _467  and  _469
REMARK  184  A    between atoms: _469  and  _470
REMARK  185  A    between atoms: _469  and  _472
REMARK  186  A    between atoms: _472  and  _473
REMARK  187  A    between atoms: _479  and  _481
REMARK  188  A    between atoms: _481  and  _482
REMARK  189  A    between atoms: _481  and  _484
REMARK  190  A    between atoms: _484  and  _485
REMARK  191  A    between atoms: _487  and  _489
REMARK  192  A    between atoms: _489  and  _490
REMARK  193  A    between atoms: _489  and  _492
REMARK  194  A    between atoms: _492  and  _493
REMARK  195  A    between atoms: _498  and  _500
REMARK  196  A    between atoms: _500  and  _501
REMARK  197  A    between atoms: _500  and  _503
REMARK  198  A    between atoms: _503  and  _504
REMARK  199  A    between atoms: _504  and  _505
REMARK  200  A    between atoms: _508  and  _510
REMARK  201  A    between atoms: _510  and  _511
REMARK  202  A    between atoms: _513  and  _515
REMARK  203  A    between atoms: _515  and  _516
REMARK  204  A    between atoms: _515  and  _518
REMARK  205  A    between atoms: _518  and  _519
REMARK  206  A    between atoms: _521  and  _523
REMARK  207  A    between atoms: _523  and  _524
REMARK  208  A    between atoms: _523  and  _526
REMARK  209  A    between atoms: _526  and  _527
REMARK  210  A    between atoms: _533  and  _535
REMARK  211  A    between atoms: _535  and  _536
REMARK  212  A    between atoms: _535  and  _538
REMARK  213  A    between atoms: _538  and  _539
REMARK  214  A    between atoms: _545  and  _547
REMARK  215  A    between atoms: _547  and  _548
REMARK  216  A    between atoms: _547  and  _550
REMARK  217  A    between atoms: _550  and  _551
REMARK  218  A    between atoms: _554  and  _556
REMARK  219  A    between atoms: _556  and  _557
REMARK  220  A    between atoms: _556  and  _559
REMARK  221  A    between atoms: _559  and  _560
REMARK  222  A    between atoms: _563  and  _565
REMARK  223  A    between atoms: _565  and  _566
REMARK  224  A    between atoms: _565  and  _568
REMARK  225  A    between atoms: _568  and  _569
REMARK  226  A    between atoms: _574  and  _575
REMARK  227  A    between atoms: _577  and  _579
REMARK  228  A    between atoms: _579  and  _580
REMARK  229  A    between atoms: _582  and  _584
REMARK  230  A    between atoms: _584  and  _585
REMARK  231  A    between atoms: _588  and  _590
REMARK  232  A    between atoms: _590  and  _591
REMARK  233  A    between atoms: _590  and  _593
REMARK  234  A    between atoms: _593  and  _594
REMARK  235  A    between atoms: _597  and  _599
REMARK  236  A    between atoms: _599  and  _600
REMARK  237  A    between atoms: _599  and  _602
REMARK  238  A    between atoms: _602  and  _603
REMARK  239  A    between atoms: _605  and  _607
REMARK  240  A    between atoms: _607  and  _608
REMARK  241  A    between atoms: _607  and  _610
REMARK  242  A    between atoms: _613  and  _615
REMARK  243  A    between atoms: _615  and  _616
REMARK  244  A    between atoms: _615  and  _618
REMARK  245  A    between atoms: _618  and  _619
REMARK  246  A    between atoms: _624  and  _626
REMARK  247  A    between atoms: _626  and  _627
REMARK  248  A    between atoms: _626  and  _629
REMARK  249  A    between atoms: _629  and  _630
REMARK  250  A    between atoms: _640  and  _642
REMARK  251  A    between atoms: _642  and  _643
REMARK  252  A    between atoms: _642  and  _645
REMARK  253  A    between atoms: _645  and  _646
REMARK  254  A    between atoms: _646  and  _647
REMARK  255  A    between atoms: _649  and  _651
REMARK  256  A    between atoms: _651  and  _652
REMARK  257  A    between atoms: _651  and  _654
REMARK  258  A    between atoms: _654  and  _655
REMARK  259  A    between atoms: _658  and  _660
REMARK  260  A    between atoms: _660  and  _661
REMARK  261  A    between atoms: _660  and  _663
REMARK  262  A    between atoms: _663  and  _664
REMARK  263  A    between atoms: _669  and  _671
REMARK  264  A    between atoms: _671  and  _672
REMARK  265  A    between atoms: _674  and  _676
REMARK  266  A    between atoms: _676  and  _677
REMARK  267  A    between atoms: _676  and  _679
REMARK  268  A    between atoms: _679  and  _680
REMARK  269  A    between atoms: _685  and  _686
REMARK  270  A    between atoms: _688  and  _690
REMARK  271  A    between atoms: _690  and  _691
REMARK  272  A    between atoms: _690  and  _693
REMARK  273  A    between atoms: _693  and  _694
REMARK  274  A    between atoms: _694  and  _695
REMARK  275  A    between atoms: _698  and  _700
REMARK  276  A    between atoms: _700  and  _701
REMARK  277  A    between atoms: _700  and  _703
REMARK  278  A    between atoms: _703  and  _704
REMARK                            x       y       z     vdW  Elec       q    Type
REMARK                         _______ _______ _______ _____ _____    ______ ____
ROOT
ATOM      1  CA  ASP A   4      -3.181  68.654  71.525  0.00  0.00    +0.160 C 
ENDROOT
BRANCH   1   4
ATOM      2  C   VAL A   3      -5.325  67.944  70.707  0.00  0.00    +0.241 C 
ATOM      3  O   VAL A   3      -5.615  67.436  71.813  0.00  0.00    -0.273 OA
ATOM      4  N   ASP A   4      -4.173  68.562  70.485  0.00  0.00    -0.297 N 
ATOM      5  H   ASP A   4      -3.984  68.983  69.553  0.00  0.00    +0.150 HD
BRANCH   2   6
ATOM      6  CA  VAL A   3      -6.302  67.876  69.542  0.00  0.00    +0.149 C 
BRANCH   6   8
ATOM      7  C   TYR A   2      -6.377  65.807  68.251  0.00  0.00    +0.241 C 
ATOM      8  N   VAL A   3      -6.680  66.461  69.369  0.00  0.00    -0.297 N 
ATOM      9  H   VAL A   3      -7.190  65.969  70.130  0.00  0.00    +0.150 HD
ATOM     10  O   TYR A   2      -5.731  66.339  67.307  0.00  0.00    -0.273 OA
BRANCH   7  11
ATOM     11  CA  TYR A   2      -6.831  64.338  68.167  0.00  0.00    +0.153 C 
BRANCH  11  14
ATOM     12  C   GLN A   1      -8.297  64.758  66.225  0.00  0.00    +0.238 C 
ATOM     13  O   GLN A   1      -9.024  65.593  66.818  0.00  0.00    -0.274 OA
ATOM     14  N   TYR A   2      -7.291  64.100  66.802  0.00  0.00    -0.297 N 
ATOM     15  H   TYR A   2      -6.803  63.371  66.244  0.00  0.00    +0.150 HD
BRANCH  12  16
ATOM     16  CA  GLN A   1      -8.509  64.449  64.729  0.00  0.00    +0.145 C 
BRANCH  16  17
ATOM     17  N   GLN A   1      -9.808  64.907  64.224  0.00  0.00    -0.238 NA
ATOM     18  H   GLN A   1     -10.323  65.650  64.739  0.00  0.00    +0.142 HD
ENDBRANCH  16  17
BRANCH  16  19
ATOM     19  CB  GLN A   1      -7.375  65.145  63.913  0.00  0.00    +0.036 C 
BRANCH  19  20
ATOM     20  CG  GLN A   1      -7.437  66.684  63.986  0.00  0.00    +0.087 C 
BRANCH  20  21
ATOM     21  CD  GLN A   1      -6.521  67.417  62.981  0.00  0.00    +0.219 C 
ATOM     22  OE1 GLN A   1      -5.339  67.701  63.241  0.00  0.00    -0.275 OA
ATOM     23  NE2 GLN A   1      -7.083  67.714  61.818  0.00  0.00    -0.329 N 
ATOM     24 HE21 GLN A   1      -8.075  67.459  61.640  0.00  0.00    +0.145 HD
ATOM     25 HE22 GLN A   1      -6.532  68.202  61.084  0.00  0.00    +0.145 HD
ENDBRANCH  20  21
ENDBRANCH  19  20
ENDBRANCH  16  19
ENDBRANCH  12  16
ENDBRANCH  11  14
BRANCH  11  26
ATOM     26  CB  TYR A   2      -5.601  63.499  68.456  0.00  0.00    +0.055 C 
BRANCH  26  27
ATOM     27  CG  TYR A   2      -4.966  63.752  69.808  0.00  0.00    -0.020 A 
ATOM     28  CD2 TYR A   2      -5.453  63.130  70.958  0.00  0.00    -0.001 A 
ATOM     29  CE2 TYR A   2      -4.856  63.357  72.216  0.00  0.00    +0.036 A 
ATOM     30  CZ  TYR A   2      -3.757  64.226  72.326  0.00  0.00    +0.134 A 
ATOM     31  CE1 TYR A   2      -3.253  64.847  71.216  0.00  0.00    +0.036 A 
ATOM     32  CD1 TYR A   2      -3.863  64.614  69.937  0.00  0.00    -0.001 A 
BRANCH  30  33
ATOM     33  OH  TYR A   2      -3.219  64.503  73.568  0.00  0.00    -0.506 OA
ATOM     34  HH  TYR A   2      -3.694  63.975  74.257  0.00  0.00    +0.292 HD
ENDBRANCH  30  33
ENDBRANCH  26  27
ENDBRANCH  11  26
ENDBRANCH   7  11
ENDBRANCH   6   8
BRANCH   6  35
ATOM     35  CB  VAL A   3      -7.563  68.751  69.876  0.00  0.00    +0.027 C 
ATOM     36  CG2 VAL A   3      -7.164  70.142  70.370  0.00  0.00    +0.002 C 
ATOM     37  CG1 VAL A   3      -8.432  68.857  68.615  0.00  0.00    +0.002 C 
ENDBRANCH   6  35
ENDBRANCH   2   6
ENDBRANCH   1   4
BRANCH   1  38
ATOM     38  C   ASP A   4      -3.616  69.671  72.580  0.00  0.00    +0.241 C 
ATOM     39  N   GLU A   5      -3.770  69.242  73.822  0.00  0.00    -0.297 N 
ATOM     40  H   GLU A   5      -3.675  68.232  74.049  0.00  0.00    +0.150 HD
ATOM     41  O   ASP A   4      -3.826  70.839  72.275  0.00  0.00    -0.273 OA
BRANCH  39  42
ATOM     42  CA  GLU A   5      -4.074  70.208  74.860  0.00  0.00    +0.149 C 
BRANCH  42  43
ATOM     43  C   GLU A   5      -3.096  70.082  76.038  0.00  0.00    +0.241 C 
ATOM     44  O   GLU A   5      -3.376  70.450  77.163  0.00  0.00    -0.273 OA
ATOM     45  N   GLN A   6      -1.906  69.585  75.743  0.00  0.00    -0.297 N 
ATOM     46  H   GLN A   6      -1.716  69.271  74.770  0.00  0.00    +0.150 HD
BRANCH  45  47
ATOM     47  CA  GLN A   6      -0.855  69.466  76.743  0.00  0.00    +0.149 C 
BRANCH  47  48
ATOM     48  C   GLN A   6      -0.436  70.860  77.337  0.00  0.00    +0.241 C 
ATOM     49  O   GLN A   6      -0.187  70.985  78.532  0.00  0.00    -0.273 OA
ATOM     50  N   PHE A   7      -0.393  71.898  76.502  0.00  0.00    -0.298 N 
ATOM     51  H   PHE A   7      -0.642  71.746  75.504  0.00  0.00    +0.150 HD
BRANCH  50  52
ATOM     52  CA  PHE A   7      -0.007  73.252  76.935  0.00  0.00    +0.141 C 
BRANCH  52  53
ATOM     53  C   PHE A   7      -1.077  74.281  76.459  0.00  0.00    +0.227 C 
ATOM     54  O   PHE A   7      -0.877  75.031  75.508  0.00  0.00    -0.286 OA
ENDBRANCH  52  53
BRANCH  52  55
ATOM     55  CB  PHE A   7       1.382  73.571  76.340  0.00  0.00    +0.054 C 
BRANCH  55  56
ATOM     56  CG  PHE A   7       2.425  72.510  76.643  0.00  0.00    -0.020 A 
ATOM     57  CD2 PHE A   7       2.895  72.328  77.958  0.00  0.00    -0.004 A 
ATOM     58  CE2 PHE A   7       3.835  71.328  78.267  0.00  0.00    -0.000 A 
ATOM     59  CZ  PHE A   7       4.319  70.499  77.252  0.00  0.00    -0.000 A 
ATOM     60  CE1 PHE A   7       3.860  70.676  75.922  0.00  0.00    -0.000 A 
ATOM     61  CD1 PHE A   7       2.915  71.681  75.634  0.00  0.00    -0.004 A 
ENDBRANCH  55  56
ENDBRANCH  52  55
ENDBRANCH  50  52
ENDBRANCH  47  48
BRANCH  47  62
ATOM     62  CB  GLN A   6       0.354  68.778  76.084  0.00  0.00    +0.039 C 
BRANCH  62  63
ATOM     63  CG  GLN A   6       1.473  68.469  77.032  0.00  0.00    +0.087 C 
BRANCH  63  64
ATOM     64  CD  GLN A   6       1.024  67.530  78.153  0.00  0.00    +0.219 C 
ATOM     65  NE2 GLN A   6       1.060  68.020  79.386  0.00  0.00    -0.329 N 
ATOM     66 HE21 GLN A   6       0.758  67.431  80.188  0.00  0.00    +0.145 HD
ATOM     67 HE22 GLN A   6       1.390  68.993  79.550  0.00  0.00    +0.145 HD
ATOM     68  OE1 GLN A   6       0.641  66.384  77.908  0.00  0.00    -0.275 OA
ENDBRANCH  63  64
ENDBRANCH  62  63
ENDBRANCH  47  62
ENDBRANCH  45  47
ENDBRANCH  42  43
BRANCH  42  69
ATOM     69  CB  GLU A   5      -5.553  70.163  75.264  0.00  0.00    +0.041 C 
BRANCH  69  70
ATOM     70  CG  GLU A   5      -6.158  68.854  75.704  0.00  0.00    +0.116 C 
BRANCH  70  71
ATOM     71  CD  GLU A   5      -7.704  68.999  75.854  0.00  0.00    +0.365 C 
ATOM     72  OE2 GLU A   5      -8.188  69.314  76.967  0.00  0.00    -0.246 OA
ATOM     73  OE1 GLU A   5      -8.428  68.839  74.840  0.00  0.00    -0.246 OA
ENDBRANCH  70  71
ENDBRANCH  69  70
ENDBRANCH  42  69
ENDBRANCH  39  42
ENDBRANCH   1  38
BRANCH   1  74
ATOM     74  CB  ASP A   4      -1.833  69.095  70.900  0.00  0.00    +0.143 C 
BRANCH  74  75
ATOM     75  CG  ASP A   4      -0.701  69.215  71.925  0.00  0.00    +0.367 C 
ATOM     76  OD2 ASP A   4      -0.923  68.914  73.126  0.00  0.00    -0.246 OA
ATOM     77  OD1 ASP A   4       0.411  69.591  71.508  0.00  0.00    -0.246 OA
ENDBRANCH  74  75
ENDBRANCH   1  74
TORSDOF 31
REMARK  Name = ../refined-set-2016/1h23/1h23_pocket.pdb
REMARK  278 active torsions:
REMARK  status: ('A' for Active; 'I' for Inactive)
REMARK    1  A    between atoms: _1  and  _3
REMARK    2  A    between atoms: _3  and  _4
REMARK    3  A    between atoms: _3  and  _6
REMARK    4  A    between atoms: _6  and  _7
REMARK    5  A    between atoms: _7  and  _8
REMARK    6  A    between atoms: _13  and  _15
REMARK    7  A    between atoms: _15  and  _16
REMARK    8  A    between atoms: _15  and  _18
REMARK    9  A    between atoms: _18  and  _19
REMARK   10  A    between atoms: _24  and  _25
REMARK   11  A    between atoms: _27  and  _29
REMARK   12  A    between atoms: _29  and  _30
REMARK   13  A    between atoms: _29  and  _32
REMARK   14  A    between atoms: _35  and  _37
REMARK   15  A    between atoms: _37  and  _38
REMARK   16  A    between atoms: _37  and  _40
REMARK   17  A    between atoms: _40  and  _41
REMARK   18  A    between atoms: _44  and  _46
REMARK   19  A    between atoms: _46  and  _47
REMARK   20  A    between atoms: _46  and  _49
REMARK   21  A    between atoms: _49  and  _50
REMARK   22  A    between atoms: _50  and  _51
REMARK   23  A    between atoms: _54  and  _56
REMARK   24  A    between atoms: _56  and  _57
REMARK   25  A    between atoms: _56  and  _59
REMARK   26  A    between atoms: _59  and  _60
REMARK   27  A    between atoms: _60  and  _61
REMARK   28  A    between atoms: _66  and  _68
REMARK   29  A    between atoms: _68  and  _69
REMARK   30  A    between atoms: _68  and  _71
REMARK   31  A    between atoms: _71  and  _72
REMARK   32  A    between atoms: _78  and  _80
REMARK   33  A    between atoms: _80  and  _81
REMARK   34  A    between atoms: _83  and  _85
REMARK   35  A    between atoms: _85  and  _86
REMARK   36  A    between atoms: _85  and  _88
REMARK   37  A    between atoms: _88  and  _89
REMARK   38  A    between atoms: _91  and  _93
REMARK   39  A    between atoms: _93  and  _94
REMARK   40  A    between atoms: _93  and  _96
REMARK   41  A    between atoms: _96  and  _97
REMARK   42  A    between atoms: _97  and  _98
REMARK   43  A    between atoms: _100  and  _102
REMARK   44  A    between atoms: _102  and  _103
REMARK   45  A    between atoms: _102  and  _105
REMARK   46  A    between atoms: _105  and  _106
REMARK   47  A    between atoms: _116  and  _118
REMARK   48  A    between atoms: _118  and  _119
REMARK   49  A    between atoms: _118  and  _121
REMARK   50  A    between atoms: _121  and  _122
REMARK   51  A    between atoms: _128  and  _129
REMARK   52  A    between atoms: _134  and  _136
REMARK   53  A    between atoms: _136  and  _137
REMARK   54  A    between atoms: _136  and  _139
REMARK   55  A    between atoms: _139  and  _140
REMARK   56  A    between atoms: _150  and  _152
REMARK   57  A    between atoms: _152  and  _153
REMARK   58  A    between atoms: _152  and  _155
REMARK   59  A    between atoms: _155  and  _156
REMARK   60  A    between atoms: _159  and  _161
REMARK   61  A    between atoms: _161  and  _162
REMARK   62  A    between atoms: _161  and  _164
REMARK   63  A    between atoms: _164  and  _165
REMARK   64  A    between atoms: _170  and  _171
REMARK   65  A    between atoms: _173  and  _175
REMARK   66  A    between atoms: _175  and  _176
REMARK   67  A    between atoms: _178  and  _180
REMARK   68  A    between atoms: _180  and  _181
REMARK   69  A    between atoms: _183  and  _185
REMARK   70  A    between atoms: _185  and  _186
REMARK   71  A    between atoms: _188  and  _190
REMARK   72  A    between atoms: _190  and  _191
REMARK   73  A    between atoms: _190  and  _193
REMARK   74  A    between atoms: _193  and  _194
REMARK   75  A    between atoms: _200  and  _202
REMARK   76  A    between atoms: _202  and  _203
REMARK   77  A    between atoms: _202  and  _205
REMARK   78  A    between atoms: _205  and  _206
REMARK   79  A    between atoms: _211  and  _212
REMARK   80  A    between atoms: _214  and  _216
REMARK   81  A    between atoms: _216  and  _217
REMARK   82  A    between atoms: _216  and  _219
REMARK   83  A    between atoms: _219  and  _220
REMARK   84  A    between atoms: _222  and  _224
REMARK   85  A    between atoms: _224  and  _225
REMARK   86  A    between atoms: _227  and  _229
REMARK   87  A    between atoms: _229  and  _230
REMARK   88  A    between atoms: _229  and  _232
REMARK   89  A    between atoms: _232  and  _233
REMARK   90  A    between atoms: _235  and  _237
REMARK   91  A    between atoms: _237  and  _238
REMARK   92  A    between atoms: _237  and  _240
REMARK   93  A    between atoms: _240  and  _241
REMARK   94  A    between atoms: _243  and  _245
REMARK   95  A    between atoms: _245  and  _246
REMARK   96  A    between atoms: _245  and  _248
REMARK   97  A    between atoms: _248  and  _249
REMARK   98  A    between atoms: _252  and  _254
REMARK   99  A    between atoms: _254  and  _255
REMARK  100  A    between atoms: _254  and  _257
REMARK  101  A    between atoms: _257  and  _258
REMARK  102  A    between atoms: _261  and  _263
REMARK  103  A    between atoms: _263  and  _264
REMARK  104  A    between atoms: _263  and  _266
REMARK  105  A    between atoms: _269  and  _271
REMARK  106  A    between atoms: _271  and  _272
REMARK  107  A    between atoms: _271  and  _274
REMARK  108  A    between atoms: _274  and  _275
REMARK  109  A    between atoms: _280  and  _281
REMARK  110  A    between atoms: _283  and  _285
REMARK  111  A    between atoms: _285  and  _286
REMARK  112  A    between atoms: _285  and  _288
REMARK  113  A    between atoms: _288  and  _289
REMARK  114  A    between atoms: _294  and  _295
REMARK  115  A    between atoms: _297  and  _299
REMARK  116  A    between atoms: _299  and  _300
REMARK  117  A    between atoms: _299  and  _302
REMARK  118  A    between atoms: _305  and  _307
REMARK  119  A    between atoms: _307  and  _308
REMARK  120  A    between atoms: _307  and  _310
REMARK  121  A    between atoms: _310  and  _311
REMARK  122  A    between atoms: _311  and  _312
REMARK  123  A    between atoms: _315  and  _317
REMARK  124  A    between atoms: _317  and  _318
REMARK  125  A    between atoms: _317  and  _320
REMARK  126  A    between atoms: _320  and  _321
REMARK  127  A    between atoms: _323  and  _325
REMARK  128  A    between atoms: _325  and  _326
REMARK  129  A    between atoms: _329  and  _331
REMARK  130  A    between atoms: _331  and  _332
REMARK  131  A    between atoms: _334  and  _336
REMARK  132  A    between atoms: _336  and  _337
REMARK  133  A    between atoms: _336  and  _339
REMARK  134  A    between atoms: _339  and  _340
REMARK  135  A    between atoms: _340  and  _341
REMARK  136  A    between atoms: _346  and  _348
REMARK  137  A    between atoms: _348  and  _349
REMARK  138  A    between atoms: _348  and  _351
REMARK  139  A    between atoms: _351  and  _352
REMARK  140  A    between atoms: _354  and  _356
REMARK  141  A    between atoms: _356  and  _357
REMARK  142  A    between atoms: _356  and  _359
REMARK  143  A    between atoms: _359  and  _360
REMARK  144  A    between atoms: _360  and  _361
REMARK  145  A    between atoms: _364  and  _366
REMARK  146  A    between atoms: _366  and  _367
REMARK  147  A    between atoms: _366  and  _369
REMARK  148  A    between atoms: _369  and  _370
REMARK  149  A    between atoms: _380  and  _382
REMARK  150  A    between atoms: _382  and  _383
REMARK  151  A    between atoms: _382  and  _385
REMARK  152  A    between atoms: _385  and  _386
REMARK  153  A    between atoms: _391  and  _393
REMARK  154  A    between atoms: _393  and  _394
REMARK  155  A    between atoms: _393  and  _396
REMARK  156  A    between atoms: _396  and  _397
REMARK  157  A    between atoms: _400  and  _402
REMARK  158  A    between atoms: _402  and  _403
REMARK  159  A    between atoms: _402  and  _405
REMARK  160  A    between atoms: _405  and  _406
REMARK  161  A    between atoms: _412  and  _414
REMARK  162  A    between atoms: _414  and  _415
REMARK  163  A    between atoms: _414  and  _417
REMARK  164  A    between atoms: _417  and  _418
REMARK  165  A    between atoms: _421  and  _423
REMARK  166  A    between atoms: _423  and  _424
REMARK  167  A    between atoms: _423  and  _426
REMARK  168  A    between atoms: _426  and  _427
REMARK  169  A    between atoms: _429  and  _431
REMARK  170  A    between atoms: _431  and  _432
REMARK  171  A    between atoms: _431  and  _434
REMARK  172  A    between atoms: _434  and  _435
REMARK  173  A    between atoms: _438  and  _440
REMARK  174  A    between atoms: _440  and  _441
REMARK  175  A    between atoms: _440  and  _443
REMARK  176  A    between atoms: _443  and  _444
REMARK  177  A    between atoms: _450  and  _452
REMARK  178  A    between atoms: _452  and  _453
REMARK  179  A    between atoms: _452  and  _455
REMARK  180  A    between atoms: _455  and  _456
REMARK  181  A    between atoms: _456  and  _457
REMARK  182  A    between atoms: _457  and  _458
REMARK  183  A    between atoms: _467  and  _469
REMARK  184  A    between atoms: _469  and  _470
REMARK  185  A    between atoms: _469  and  _472
REMARK  186  A    between atoms: _472  and  _473
REMARK  187  A    between atoms: _479  and  _481
REMARK  188  A    between atoms: _481  and  _482
REMARK  189  A    between atoms: _481  and  _484
REMARK  190  A    between atoms: _484  and  _485
REMARK  191  A    between atoms: _487  and  _489
REMARK  192  A    between atoms: _489  and  _490
REMARK  193  A    between atoms: _489  and  _492
REMARK  194  A    between atoms: _492  and  _493
REMARK  195  A    between atoms: _498  and  _500
REMARK  196  A    between atoms: _500  and  _501
REMARK  197  A    between atoms: _500  and  _503
REMARK  198  A    between atoms: _503  and  _504
REMARK  199  A    between atoms: _504  and  _505
REMARK  200  A    between atoms: _508  and  _510
REMARK  201  A    between atoms: _510  and  _511
REMARK  202  A    between atoms: _513  and  _515
REMARK  203  A    between atoms: _515  and  _516
REMARK  204  A    between atoms: _515  and  _518
REMARK  205  A    between atoms: _518  and  _519
REMARK  206  A    between atoms: _521  and  _523
REMARK  207  A    between atoms: _523  and  _524
REMARK  208  A    between atoms: _523  and  _526
REMARK  209  A    between atoms: _526  and  _527
REMARK  210  A    between atoms: _533  and  _535
REMARK  211  A    between atoms: _535  and  _536
REMARK  212  A    between atoms: _535  and  _538
REMARK  213  A    between atoms: _538  and  _539
REMARK  214  A    between atoms: _545  and  _547
REMARK  215  A    between atoms: _547  and  _548
REMARK  216  A    between atoms: _547  and  _550
REMARK  217  A    between atoms: _550  and  _551
REMARK  218  A    between atoms: _554  and  _556
REMARK  219  A    between atoms: _556  and  _557
REMARK  220  A    between atoms: _556  and  _559
REMARK  221  A    between atoms: _559  and  _560
REMARK  222  A    between atoms: _563  and  _565
REMARK  223  A    between atoms: _565  and  _566
REMARK  224  A    between atoms: _565  and  _568
REMARK  225  A    between atoms: _568  and  _569
REMARK  226  A    between atoms: _574  and  _575
REMARK  227  A    between atoms: _577  and  _579
REMARK  228  A    between atoms: _579  and  _580
REMARK  229  A    between atoms: _582  and  _584
REMARK  230  A    between atoms: _584  and  _585
REMARK  231  A    between atoms: _588  and  _590
REMARK  232  A    between atoms: _590  and  _591
REMARK  233  A    between atoms: _590  and  _593
REMARK  234  A    between atoms: _593  and  _594
REMARK  235  A    between atoms: _597  and  _599
REMARK  236  A    between atoms: _599  and  _600
REMARK  237  A    between atoms: _599  and  _602
REMARK  238  A    between atoms: _602  and  _603
REMARK  239  A    between atoms: _605  and  _607
REMARK  240  A    between atoms: _607  and  _608
REMARK  241  A    between atoms: _607  and  _610
REMARK  242  A    between atoms: _613  and  _615
REMARK  243  A    between atoms: _615  and  _616
REMARK  244  A    between atoms: _615  and  _618
REMARK  245  A    between atoms: _618  and  _619
REMARK  246  A    between atoms: _624  and  _626
REMARK  247  A    between atoms: _626  and  _627
REMARK  248  A    between atoms: _626  and  _629
REMARK  249  A    between atoms: _629  and  _630
REMARK  250  A    between atoms: _640  and  _642
REMARK  251  A    between atoms: _642  and  _643
REMARK  252  A    between atoms: _642  and  _645
REMARK  253  A    between atoms: _645  and  _646
REMARK  254  A    between atoms: _646  and  _647
REMARK  255  A    between atoms: _649  and  _651
REMARK  256  A    between atoms: _651  and  _652
REMARK  257  A    between atoms: _651  and  _654
REMARK  258  A    between atoms: _654  and  _655
REMARK  259  A    between atoms: _658  and  _660
REMARK  260  A    between atoms: _660  and  _661
REMARK  261  A    between atoms: _660  and  _663
REMARK  262  A    between atoms: _663  and  _664
REMARK  263  A    between atoms: _669  and  _671
REMARK  264  A    between atoms: _671  and  _672
REMARK  265  A    between atoms: _674  and  _676
REMARK  266  A    between atoms: _676  and  _677
REMARK  267  A    between atoms: _676  and  _679
REMARK  268  A    between atoms: _679  and  _680
REMARK  269  A    between atoms: _685  and  _686
REMARK  270  A    between atoms: _688  and  _690
REMARK  271  A    between atoms: _690  and  _691
REMARK  272  A    between atoms: _690  and  _693
REMARK  273  A    between atoms: _693  and  _694
REMARK  274  A    between atoms: _694  and  _695
REMARK  275  A    between atoms: _698  and  _700
REMARK  276  A    between atoms: _700  and  _701
REMARK  277  A    between atoms: _700  and  _703
REMARK  278  A    between atoms: _703  and  _704
REMARK                            x       y       z     vdW  Elec       q    Type
REMARK                         _______ _______ _______ _____ _____    ______ ____
ROOT
ATOM      1  C   GLY A   1       3.660  74.894  69.818  0.00  0.00    +0.240 C 
ATOM      2  N   SER A   2       2.694  74.525  70.656  0.00  0.00    -0.296 N 
ATOM      3  H   SER A   2       2.523  75.094  71.510  0.00  0.00    +0.150 HD
ATOM      4  O   GLY A   1       3.931  74.271  68.776  0.00  0.00    -0.274 OA
ENDROOT
BRANCH   1   5
ATOM      5  CA  GLY A   1       4.437  76.148  70.206  0.00  0.00    +0.169 C 
BRANCH   5   6
ATOM      6  N   GLY A   1       3.633  77.228  70.769  0.00  0.00    -0.236 NA
ATOM      7  H   GLY A   1       3.890  77.634  71.691  0.00  0.00    +0.142 HD
ENDBRANCH   5   6
ENDBRANCH   1   5
BRANCH   2   8
ATOM      8  CA  SER A   2       1.862  73.340  70.413  0.00  0.00    +0.166 C 
BRANCH   8   9
ATOM      9  C   SER A   2       0.583  73.669  69.645  0.00  0.00    +0.229 C 
ATOM     10  O   SER A   2       0.153  72.884  68.786  0.00  0.00    -0.286 OA
ENDBRANCH   8   9
BRANCH   8  11
ATOM     11  CB  SER A   2       1.459  72.682  71.740  0.00  0.00    +0.165 C 
BRANCH  11  12
ATOM     12  OG  SER A   2       1.069  73.702  72.652  0.00  0.00    -0.380 OA
ATOM     13  H   SER A   2       0.806  73.290  73.513  0.00  0.00    +0.211 HD
ENDBRANCH  11  12
ENDBRANCH   8  11
ENDBRANCH   2   8
TORSDOF 6
REMARK  Name = ../refined-set-2016/1h23/1h23_pocket.pdb
REMARK  278 active torsions:
REMARK  status: ('A' for Active; 'I' for Inactive)
REMARK    1  A    between atoms: _1  and  _3
REMARK    2  A    between atoms: _3  and  _4
REMARK    3  A    between atoms: _3  and  _6
REMARK    4  A    between atoms: _6  and  _7
REMARK    5  A    between atoms: _7  and  _8
REMARK    6  A    between atoms: _13  and  _15
REMARK    7  A    between atoms: _15  and  _16
REMARK    8  A    between atoms: _15  and  _18
REMARK    9  A    between atoms: _18  and  _19
REMARK   10  A    between atoms: _24  and  _25
REMARK   11  A    between atoms: _27  and  _29
REMARK   12  A    between atoms: _29  and  _30
REMARK   13  A    between atoms: _29  and  _32
REMARK   14  A    between atoms: _35  and  _37
REMARK   15  A    between atoms: _37  and  _38
REMARK   16  A    between atoms: _37  and  _40
REMARK   17  A    between atoms: _40  and  _41
REMARK   18  A    between atoms: _44  and  _46
REMARK   19  A    between atoms: _46  and  _47
REMARK   20  A    between atoms: _46  and  _49
REMARK   21  A    between atoms: _49  and  _50
REMARK   22  A    between atoms: _50  and  _51
REMARK   23  A    between atoms: _54  and  _56
REMARK   24  A    between atoms: _56  and  _57
REMARK   25  A    between atoms: _56  and  _59
REMARK   26  A    between atoms: _59  and  _60
REMARK   27  A    between atoms: _60  and  _61
REMARK   28  A    between atoms: _66  and  _68
REMARK   29  A    between atoms: _68  and  _69
REMARK   30  A    between atoms: _68  and  _71
REMARK   31  A    between atoms: _71  and  _72
REMARK   32  A    between atoms: _78  and  _80
REMARK   33  A    between atoms: _80  and  _81
REMARK   34  A    between atoms: _83  and  _85
REMARK   35  A    between atoms: _85  and  _86
REMARK   36  A    between atoms: _85  and  _88
REMARK   37  A    between atoms: _88  and  _89
REMARK   38  A    between atoms: _91  and  _93
REMARK   39  A    between atoms: _93  and  _94
REMARK   40  A    between atoms: _93  and  _96
REMARK   41  A    between atoms: _96  and  _97
REMARK   42  A    between atoms: _97  and  _98
REMARK   43  A    between atoms: _100  and  _102
REMARK   44  A    between atoms: _102  and  _103
REMARK   45  A    between atoms: _102  and  _105
REMARK   46  A    between atoms: _105  and  _106
REMARK   47  A    between atoms: _116  and  _118
REMARK   48  A    between atoms: _118  and  _119
REMARK   49  A    between atoms: _118  and  _121
REMARK   50  A    between atoms: _121  and  _122
REMARK   51  A    between atoms: _128  and  _129
REMARK   52  A    between atoms: _134  and  _136
REMARK   53  A    between atoms: _136  and  _137
REMARK   54  A    between atoms: _136  and  _139
REMARK   55  A    between atoms: _139  and  _140
REMARK   56  A    between atoms: _150  and  _152
REMARK   57  A    between atoms: _152  and  _153
REMARK   58  A    between atoms: _152  and  _155
REMARK   59  A    between atoms: _155  and  _156
REMARK   60  A    between atoms: _159  and  _161
REMARK   61  A    between atoms: _161  and  _162
REMARK   62  A    between atoms: _161  and  _164
REMARK   63  A    between atoms: _164  and  _165
REMARK   64  A    between atoms: _170  and  _171
REMARK   65  A    between atoms: _173  and  _175
REMARK   66  A    between atoms: _175  and  _176
REMARK   67  A    between atoms: _178  and  _180
REMARK   68  A    between atoms: _180  and  _181
REMARK   69  A    between atoms: _183  and  _185
REMARK   70  A    between atoms: _185  and  _186
REMARK   71  A    between atoms: _188  and  _190
REMARK   72  A    between atoms: _190  and  _191
REMARK   73  A    between atoms: _190  and  _193
REMARK   74  A    between atoms: _193  and  _194
REMARK   75  A    between atoms: _200  and  _202
REMARK   76  A    between atoms: _202  and  _203
REMARK   77  A    between atoms: _202  and  _205
REMARK   78  A    between atoms: _205  and  _206
REMARK   79  A    between atoms: _211  and  _212
REMARK   80  A    between atoms: _214  and  _216
REMARK   81  A    between atoms: _216  and  _217
REMARK   82  A    between atoms: _216  and  _219
REMARK   83  A    between atoms: _219  and  _220
REMARK   84  A    between atoms: _222  and  _224
REMARK   85  A    between atoms: _224  and  _225
REMARK   86  A    between atoms: _227  and  _229
REMARK   87  A    between atoms: _229  and  _230
REMARK   88  A    between atoms: _229  and  _232
REMARK   89  A    between atoms: _232  and  _233
REMARK   90  A    between atoms: _235  and  _237
REMARK   91  A    between atoms: _237  and  _238
REMARK   92  A    between atoms: _237  and  _240
REMARK   93  A    between atoms: _240  and  _241
REMARK   94  A    between atoms: _243  and  _245
REMARK   95  A    between atoms: _245  and  _246
REMARK   96  A    between atoms: _245  and  _248
REMARK   97  A    between atoms: _248  and  _249
REMARK   98  A    between atoms: _252  and  _254
REMARK   99  A    between atoms: _254  and  _255
REMARK  100  A    between atoms: _254  and  _257
REMARK  101  A    between atoms: _257  and  _258
REMARK  102  A    between atoms: _261  and  _263
REMARK  103  A    between atoms: _263  and  _264
REMARK  104  A    between atoms: _263  and  _266
REMARK  105  A    between atoms: _269  and  _271
REMARK  106  A    between atoms: _271  and  _272
REMARK  107  A    between atoms: _271  and  _274
REMARK  108  A    between atoms: _274  and  _275
REMARK  109  A    between atoms: _280  and  _281
REMARK  110  A    between atoms: _283  and  _285
REMARK  111  A    between atoms: _285  and  _286
REMARK  112  A    between atoms: _285  and  _288
REMARK  113  A    between atoms: _288  and  _289
REMARK  114  A    between atoms: _294  and  _295
REMARK  115  A    between atoms: _297  and  _299
REMARK  116  A    between atoms: _299  and  _300
REMARK  117  A    between atoms: _299  and  _302
REMARK  118  A    between atoms: _305  and  _307
REMARK  119  A    between atoms: _307  and  _308
REMARK  120  A    between atoms: _307  and  _310
REMARK  121  A    between atoms: _310  and  _311
REMARK  122  A    between atoms: _311  and  _312
REMARK  123  A    between atoms: _315  and  _317
REMARK  124  A    between atoms: _317  and  _318
REMARK  125  A    between atoms: _317  and  _320
REMARK  126  A    between atoms: _320  and  _321
REMARK  127  A    between atoms: _323  and  _325
REMARK  128  A    between atoms: _325  and  _326
REMARK  129  A    between atoms: _329  and  _331
REMARK  130  A    between atoms: _331  and  _332
REMARK  131  A    between atoms: _334  and  _336
REMARK  132  A    between atoms: _336  and  _337
REMARK  133  A    between atoms: _336  and  _339
REMARK  134  A    between atoms: _339  and  _340
REMARK  135  A    between atoms: _340  and  _341
REMARK  136  A    between atoms: _346  and  _348
REMARK  137  A    between atoms: _348  and  _349
REMARK  138  A    between atoms: _348  and  _351
REMARK  139  A    between atoms: _351  and  _352
REMARK  140  A    between atoms: _354  and  _356
REMARK  141  A    between atoms: _356  and  _357
REMARK  142  A    between atoms: _356  and  _359
REMARK  143  A    between atoms: _359  and  _360
REMARK  144  A    between atoms: _360  and  _361
REMARK  145  A    between atoms: _364  and  _366
REMARK  146  A    between atoms: _366  and  _367
REMARK  147  A    between atoms: _366  and  _369
REMARK  148  A    between atoms: _369  and  _370
REMARK  149  A    between atoms: _380  and  _382
REMARK  150  A    between atoms: _382  and  _383
REMARK  151  A    between atoms: _382  and  _385
REMARK  152  A    between atoms: _385  and  _386
REMARK  153  A    between atoms: _391  and  _393
REMARK  154  A    between atoms: _393  and  _394
REMARK  155  A    between atoms: _393  and  _396
REMARK  156  A    between atoms: _396  and  _397
REMARK  157  A    between atoms: _400  and  _402
REMARK  158  A    between atoms: _402  and  _403
REMARK  159  A    between atoms: _402  and  _405
REMARK  160  A    between atoms: _405  and  _406
REMARK  161  A    between atoms: _412  and  _414
REMARK  162  A    between atoms: _414  and  _415
REMARK  163  A    between atoms: _414  and  _417
REMARK  164  A    between atoms: _417  and  _418
REMARK  165  A    between atoms: _421  and  _423
REMARK  166  A    between atoms: _423  and  _424
REMARK  167  A    between atoms: _423  and  _426
REMARK  168  A    between atoms: _426  and  _427
REMARK  169  A    between atoms: _429  and  _431
REMARK  170  A    between atoms: _431  and  _432
REMARK  171  A    between atoms: _431  and  _434
REMARK  172  A    between atoms: _434  and  _435
REMARK  173  A    between atoms: _438  and  _440
REMARK  174  A    between atoms: _440  and  _441
REMARK  175  A    between atoms: _440  and  _443
REMARK  176  A    between atoms: _443  and  _444
REMARK  177  A    between atoms: _450  and  _452
REMARK  178  A    between atoms: _452  and  _453
REMARK  179  A    between atoms: _452  and  _455
REMARK  180  A    between atoms: _455  and  _456
REMARK  181  A    between atoms: _456  and  _457
REMARK  182  A    between atoms: _457  and  _458
REMARK  183  A    between atoms: _467  and  _469
REMARK  184  A    between atoms: _469  and  _470
REMARK  185  A    between atoms: _469  and  _472
REMARK  186  A    between atoms: _472  and  _473
REMARK  187  A    between atoms: _479  and  _481
REMARK  188  A    between atoms: _481  and  _482
REMARK  189  A    between atoms: _481  and  _484
REMARK  190  A    between atoms: _484  and  _485
REMARK  191  A    between atoms: _487  and  _489
REMARK  192  A    between atoms: _489  and  _490
REMARK  193  A    between atoms: _489  and  _492
REMARK  194  A    between atoms: _492  and  _493
REMARK  195  A    between atoms: _498  and  _500
REMARK  196  A    between atoms: _500  and  _501
REMARK  197  A    between atoms: _500  and  _503
REMARK  198  A    between atoms: _503  and  _504
REMARK  199  A    between atoms: _504  and  _505
REMARK  200  A    between atoms: _508  and  _510
REMARK  201  A    between atoms: _510  and  _511
REMARK  202  A    between atoms: _513  and  _515
REMARK  203  A    between atoms: _515  and  _516
REMARK  204  A    between atoms: _515  and  _518
REMARK  205  A    between atoms: _518  and  _519
REMARK  206  A    between atoms: _521  and  _523
REMARK  207  A    between atoms: _523  and  _524
REMARK  208  A    between atoms: _523  and  _526
REMARK  209  A    between atoms: _526  and  _527
REMARK  210  A    between atoms: _533  and  _535
REMARK  211  A    between atoms: _535  and  _536
REMARK  212  A    between atoms: _535  and  _538
REMARK  213  A    between atoms: _538  and  _539
REMARK  214  A    between atoms: _545  and  _547
REMARK  215  A    between atoms: _547  and  _548
REMARK  216  A    between atoms: _547  and  _550
REMARK  217  A    between atoms: _550  and  _551
REMARK  218  A    between atoms: _554  and  _556
REMARK  219  A    between atoms: _556  and  _557
REMARK  220  A    between atoms: _556  and  _559
REMARK  221  A    between atoms: _559  and  _560
REMARK  222  A    between atoms: _563  and  _565
REMARK  223  A    between atoms: _565  and  _566
REMARK  224  A    between atoms: _565  and  _568
REMARK  225  A    between atoms: _568  and  _569
REMARK  226  A    between atoms: _574  and  _575
REMARK  227  A    between atoms: _577  and  _579
REMARK  228  A    between atoms: _579  and  _580
REMARK  229  A    between atoms: _582  and  _584
REMARK  230  A    between atoms: _584  and  _585
REMARK  231  A    between atoms: _588  and  _590
REMARK  232  A    between atoms: _590  and  _591
REMARK  233  A    between atoms: _590  and  _593
REMARK  234  A    between atoms: _593  and  _594
REMARK  235  A    between atoms: _597  and  _599
REMARK  236  A    between atoms: _599  and  _600
REMARK  237  A    between atoms: _599  and  _602
REMARK  238  A    between atoms: _602  and  _603
REMARK  239  A    between atoms: _605  and  _607
REMARK  240  A    between atoms: _607  and  _608
REMARK  241  A    between atoms: _607  and  _610
REMARK  242  A    between atoms: _613  and  _615
REMARK  243  A    between atoms: _615  and  _616
REMARK  244  A    between atoms: _615  and  _618
REMARK  245  A    between atoms: _618  and  _619
REMARK  246  A    between atoms: _624  and  _626
REMARK  247  A    between atoms: _626  and  _627
REMARK  248  A    between atoms: _626  and  _629
REMARK  249  A    between atoms: _629  and  _630
REMARK  250  A    between atoms: _640  and  _642
REMARK  251  A    between atoms: _642  and  _643
REMARK  252  A    between atoms: _642  and  _645
REMARK  253  A    between atoms: _645  and  _646
REMARK  254  A    between atoms: _646  and  _647
REMARK  255  A    between atoms: _649  and  _651
REMARK  256  A    between atoms: _651  and  _652
REMARK  257  A    between atoms: _651  and  _654
REMARK  258  A    between atoms: _654  and  _655
REMARK  259  A    between atoms: _658  and  _660
REMARK  260  A    between atoms: _660  and  _661
REMARK  261  A    between atoms: _660  and  _663
REMARK  262  A    between atoms: _663  and  _664
REMARK  263  A    between atoms: _669  and  _671
REMARK  264  A    between atoms: _671  and  _672
REMARK  265  A    between atoms: _674  and  _676
REMARK  266  A    between atoms: _676  and  _677
REMARK  267  A    between atoms: _676  and  _679
REMARK  268  A    between atoms: _679  and  _680
REMARK  269  A    between atoms: _685  and  _686
REMARK  270  A    between atoms: _688  and  _690
REMARK  271  A    between atoms: _690  and  _691
REMARK  272  A    between atoms: _690  and  _693
REMARK  273  A    between atoms: _693  and  _694
REMARK  274  A    between atoms: _694  and  _695
REMARK  275  A    between atoms: _698  and  _700
REMARK  276  A    between atoms: _700  and  _701
REMARK  277  A    between atoms: _700  and  _703
REMARK  278  A    between atoms: _703  and  _704
REMARK                            x       y       z     vdW  Elec       q    Type
REMARK                         _______ _______ _______ _____ _____    ______ ____
ROOT
ATOM      1  CA  TRP A   2      -0.274  72.520  64.934  0.00  0.00    +0.153 C 
ENDROOT
BRANCH   1   3
ATOM      2  C   MET A   1      -0.034  74.959  65.100  0.00  0.00    +0.238 C 
ATOM      3  N   TRP A   2      -0.084  73.761  65.697  0.00  0.00    -0.297 N 
ATOM      4  H   TRP A   2       0.015  73.708  66.731  0.00  0.00    +0.150 HD
ATOM      5  O   MET A   1      -0.124  75.094  63.878  0.00  0.00    -0.274 OA
BRANCH   2   6
ATOM      6  CA  MET A   1       0.148  76.216  65.994  0.00  0.00    +0.146 C 
BRANCH   6   7
ATOM      7  N   MET A   1      -0.040  75.922  67.403  0.00  0.00    -0.238 NA
ATOM      8  H   MET A   1       0.768  75.995  68.053  0.00  0.00    +0.142 HD
ENDBRANCH   6   7
BRANCH   6   9
ATOM      9  CB  MET A   1       1.545  76.781  65.769  0.00  0.00    +0.038 C 
BRANCH   9  10
ATOM     10  CG  MET A   1       2.655  75.743  65.960  0.00  0.00    +0.060 C 
BRANCH  10  11
ATOM     11  SD  MET A   1       4.337  76.486  65.850  0.00  0.00    -0.139 S 
ATOM     12  CE  MET A   1       4.617  76.481  64.112  0.00  0.00    +0.069 C 
ENDBRANCH  10  11
ENDBRANCH   9  10
ENDBRANCH   6   9
ENDBRANCH   2   6
ENDBRANCH   1   3
BRANCH   1  13
ATOM     13  C   TRP A   2      -1.701  72.003  65.068  0.00  0.00    +0.241 C 
ATOM     14  N   ASN A   3      -2.474  72.597  65.965  0.00  0.00    -0.297 N 
ATOM     15  H   ASN A   3      -2.110  73.397  66.522  0.00  0.00    +0.150 HD
ATOM     16  O   TRP A   2      -2.096  71.054  64.392  0.00  0.00    -0.273 OA
BRANCH  14  17
ATOM     17  CA  ASN A   3      -3.854  72.118  66.170  0.00  0.00    +0.158 C 
BRANCH  17  18
ATOM     18  C   ASN A   3      -4.819  72.650  65.114  0.00  0.00    +0.244 C 
ATOM     19  N   PRO A   4      -5.931  71.951  64.873  0.00  0.00    -0.273 N 
ATOM     20  CD  PRO A   4      -6.447  70.760  65.570  0.00  0.00    +0.094 C 
ATOM     21  CG  PRO A   4      -7.617  70.351  64.690  0.00  0.00    +0.024 C 
ATOM     22  CB  PRO A   4      -8.126  71.544  64.083  0.00  0.00    +0.030 C 
ATOM     23  CA  PRO A   4      -6.900  72.445  63.886  0.00  0.00    +0.140 C 
ATOM     24  O   ASN A   3      -4.551  73.651  64.490  0.00  0.00    -0.273 OA
BRANCH  23  25
ATOM     25  C   PRO A   4      -7.286  73.887  64.320  0.00  0.00    +0.227 C 
ATOM     26  O   PRO A   4      -7.483  74.156  65.515  0.00  0.00    -0.286 OA
ENDBRANCH  23  25
ENDBRANCH  17  18
BRANCH  17  27
ATOM     27  CB  ASN A   3      -4.395  72.567  67.549  0.00  0.00    +0.114 C 
BRANCH  27  28
ATOM     28  CG  ASN A   3      -4.042  71.608  68.693  0.00  0.00    +0.222 C 
ATOM     29  ND2 ASN A   3      -3.896  72.157  69.904  0.00  0.00    -0.329 N 
ATOM     30 HD21 ASN A   3      -3.692  71.555  70.727  0.00  0.00    +0.145 HD
ATOM     31 HD22 ASN A   3      -3.986  73.186  70.023  0.00  0.00    +0.145 HD
ATOM     32  OD1 ASN A   3      -3.944  70.393  68.502  0.00  0.00    -0.275 OA
ENDBRANCH  27  28
ENDBRANCH  17  27
ENDBRANCH  14  17
ENDBRANCH   1  13
BRANCH   1  33
ATOM     33  CB  TRP A   2       0.698  71.420  65.418  0.00  0.00    +0.057 C 
BRANCH  33  34
ATOM     34  CG  TRP A   2       2.169  71.870  65.342  0.00  0.00    -0.002 A 
ATOM     35  CD1 TRP A   2       2.987  72.186  66.382  0.00  0.00    +0.068 A 
ATOM     36  NE1 TRP A   2       4.234  72.593  65.920  0.00  0.00    -0.352 N 
ATOM     37  HE1 TRP A   2       5.039  72.881  66.513  0.00  0.00    +0.166 HD
ATOM     38  CE2 TRP A   2       4.221  72.550  64.552  0.00  0.00    +0.056 A 
ATOM     39  CZ2 TRP A   2       5.231  72.871  63.623  0.00  0.00    +0.017 A 
ATOM     40  CH2 TRP A   2       4.924  72.737  62.283  0.00  0.00    +0.001 A 
ATOM     41  CZ3 TRP A   2       3.652  72.294  61.855  0.00  0.00    +0.000 A 
ATOM     42  CE3 TRP A   2       2.651  71.965  62.781  0.00  0.00    +0.001 A 
ATOM     43  CD2 TRP A   2       2.932  72.094  64.151  0.00  0.00    +0.013 A 
ENDBRANCH  33  34
ENDBRANCH   1  33
TORSDOF 14
REMARK  Name = ../refined-set-2016/1h23/1h23_pocket.pdb
REMARK  278 active torsions:
REMARK  status: ('A' for Active; 'I' for Inactive)
REMARK    1  A    between atoms: _1  and  _3
REMARK    2  A    between atoms: _3  and  _4
REMARK    3  A    between atoms: _3  and  _6
REMARK    4  A    between atoms: _6  and  _7
REMARK    5  A    between atoms: _7  and  _8
REMARK    6  A    between atoms: _13  and  _15
REMARK    7  A    between atoms: _15  and  _16
REMARK    8  A    between atoms: _15  and  _18
REMARK    9  A    between atoms: _18  and  _19
REMARK   10  A    between atoms: _24  and  _25
REMARK   11  A    between atoms: _27  and  _29
REMARK   12  A    between atoms: _29  and  _30
REMARK   13  A    between atoms: _29  and  _32
REMARK   14  A    between atoms: _35  and  _37
REMARK   15  A    between atoms: _37  and  _38
REMARK   16  A    between atoms: _37  and  _40
REMARK   17  A    between atoms: _40  and  _41
REMARK   18  A    between atoms: _44  and  _46
REMARK   19  A    between atoms: _46  and  _47
REMARK   20  A    between atoms: _46  and  _49
REMARK   21  A    between atoms: _49  and  _50
REMARK   22  A    between atoms: _50  and  _51
REMARK   23  A    between atoms: _54  and  _56
REMARK   24  A    between atoms: _56  and  _57
REMARK   25  A    between atoms: _56  and  _59
REMARK   26  A    between atoms: _59  and  _60
REMARK   27  A    between atoms: _60  and  _61
REMARK   28  A    between atoms: _66  and  _68
REMARK   29  A    between atoms: _68  and  _69
REMARK   30  A    between atoms: _68  and  _71
REMARK   31  A    between atoms: _71  and  _72
REMARK   32  A    between atoms: _78  and  _80
REMARK   33  A    between atoms: _80  and  _81
REMARK   34  A    between atoms: _83  and  _85
REMARK   35  A    between atoms: _85  and  _86
REMARK   36  A    between atoms: _85  and  _88
REMARK   37  A    between atoms: _88  and  _89
REMARK   38  A    between atoms: _91  and  _93
REMARK   39  A    between atoms: _93  and  _94
REMARK   40  A    between atoms: _93  and  _96
REMARK   41  A    between atoms: _96  and  _97
REMARK   42  A    between atoms: _97  and  _98
REMARK   43  A    between atoms: _100  and  _102
REMARK   44  A    between atoms: _102  and  _103
REMARK   45  A    between atoms: _102  and  _105
REMARK   46  A    between atoms: _105  and  _106
REMARK   47  A    between atoms: _116  and  _118
REMARK   48  A    between atoms: _118  and  _119
REMARK   49  A    between atoms: _118  and  _121
REMARK   50  A    between atoms: _121  and  _122
REMARK   51  A    between atoms: _128  and  _129
REMARK   52  A    between atoms: _134  and  _136
REMARK   53  A    between atoms: _136  and  _137
REMARK   54  A    between atoms: _136  and  _139
REMARK   55  A    between atoms: _139  and  _140
REMARK   56  A    between atoms: _150  and  _152
REMARK   57  A    between atoms: _152  and  _153
REMARK   58  A    between atoms: _152  and  _155
REMARK   59  A    between atoms: _155  and  _156
REMARK   60  A    between atoms: _159  and  _161
REMARK   61  A    between atoms: _161  and  _162
REMARK   62  A    between atoms: _161  and  _164
REMARK   63  A    between atoms: _164  and  _165
REMARK   64  A    between atoms: _170  and  _171
REMARK   65  A    between atoms: _173  and  _175
REMARK   66  A    between atoms: _175  and  _176
REMARK   67  A    between atoms: _178  and  _180
REMARK   68  A    between atoms: _180  and  _181
REMARK   69  A    between atoms: _183  and  _185
REMARK   70  A    between atoms: _185  and  _186
REMARK   71  A    between atoms: _188  and  _190
REMARK   72  A    between atoms: _190  and  _191
REMARK   73  A    between atoms: _190  and  _193
REMARK   74  A    between atoms: _193  and  _194
REMARK   75  A    between atoms: _200  and  _202
REMARK   76  A    between atoms: _202  and  _203
REMARK   77  A    between atoms: _202  and  _205
REMARK   78  A    between atoms: _205  and  _206
REMARK   79  A    between atoms: _211  and  _212
REMARK   80  A    between atoms: _214  and  _216
REMARK   81  A    between atoms: _216  and  _217
REMARK   82  A    between atoms: _216  and  _219
REMARK   83  A    between atoms: _219  and  _220
REMARK   84  A    between atoms: _222  and  _224
REMARK   85  A    between atoms: _224  and  _225
REMARK   86  A    between atoms: _227  and  _229
REMARK   87  A    between atoms: _229  and  _230
REMARK   88  A    between atoms: _229  and  _232
REMARK   89  A    between atoms: _232  and  _233
REMARK   90  A    between atoms: _235  and  _237
REMARK   91  A    between atoms: _237  and  _238
REMARK   92  A    between atoms: _237  and  _240
REMARK   93  A    between atoms: _240  and  _241
REMARK   94  A    between atoms: _243  and  _245
REMARK   95  A    between atoms: _245  and  _246
REMARK   96  A    between atoms: _245  and  _248
REMARK   97  A    between atoms: _248  and  _249
REMARK   98  A    between atoms: _252  and  _254
REMARK   99  A    between atoms: _254  and  _255
REMARK  100  A    between atoms: _254  and  _257
REMARK  101  A    between atoms: _257  and  _258
REMARK  102  A    between atoms: _261  and  _263
REMARK  103  A    between atoms: _263  and  _264
REMARK  104  A    between atoms: _263  and  _266
REMARK  105  A    between atoms: _269  and  _271
REMARK  106  A    between atoms: _271  and  _272
REMARK  107  A    between atoms: _271  and  _274
REMARK  108  A    between atoms: _274  and  _275
REMARK  109  A    between atoms: _280  and  _281
REMARK  110  A    between atoms: _283  and  _285
REMARK  111  A    between atoms: _285  and  _286
REMARK  112  A    between atoms: _285  and  _288
REMARK  113  A    between atoms: _288  and  _289
REMARK  114  A    between atoms: _294  and  _295
REMARK  115  A    between atoms: _297  and  _299
REMARK  116  A    between atoms: _299  and  _300
REMARK  117  A    between atoms: _299  and  _302
REMARK  118  A    between atoms: _305  and  _307
REMARK  119  A    between atoms: _307  and  _308
REMARK  120  A    between atoms: _307  and  _310
REMARK  121  A    between atoms: _310  and  _311
REMARK  122  A    between atoms: _311  and  _312
REMARK  123  A    between atoms: _315  and  _317
REMARK  124  A    between atoms: _317  and  _318
REMARK  125  A    between atoms: _317  and  _320
REMARK  126  A    between atoms: _320  and  _321
REMARK  127  A    between atoms: _323  and  _325
REMARK  128  A    between atoms: _325  and  _326
REMARK  129  A    between atoms: _329  and  _331
REMARK  130  A    between atoms: _331  and  _332
REMARK  131  A    between atoms: _334  and  _336
REMARK  132  A    between atoms: _336  and  _337
REMARK  133  A    between atoms: _336  and  _339
REMARK  134  A    between atoms: _339  and  _340
REMARK  135  A    between atoms: _340  and  _341
REMARK  136  A    between atoms: _346  and  _348
REMARK  137  A    between atoms: _348  and  _349
REMARK  138  A    between atoms: _348  and  _351
REMARK  139  A    between atoms: _351  and  _352
REMARK  140  A    between atoms: _354  and  _356
REMARK  141  A    between atoms: _356  and  _357
REMARK  142  A    between atoms: _356  and  _359
REMARK  143  A    between atoms: _359  and  _360
REMARK  144  A    between atoms: _360  and  _361
REMARK  145  A    between atoms: _364  and  _366
REMARK  146  A    between atoms: _366  and  _367
REMARK  147  A    between atoms: _366  and  _369
REMARK  148  A    between atoms: _369  and  _370
REMARK  149  A    between atoms: _380  and  _382
REMARK  150  A    between atoms: _382  and  _383
REMARK  151  A    between atoms: _382  and  _385
REMARK  152  A    between atoms: _385  and  _386
REMARK  153  A    between atoms: _391  and  _393
REMARK  154  A    between atoms: _393  and  _394
REMARK  155  A    between atoms: _393  and  _396
REMARK  156  A    between atoms: _396  and  _397
REMARK  157  A    between atoms: _400  and  _402
REMARK  158  A    between atoms: _402  and  _403
REMARK  159  A    between atoms: _402  and  _405
REMARK  160  A    between atoms: _405  and  _406
REMARK  161  A    between atoms: _412  and  _414
REMARK  162  A    between atoms: _414  and  _415
REMARK  163  A    between atoms: _414  and  _417
REMARK  164  A    between atoms: _417  and  _418
REMARK  165  A    between atoms: _421  and  _423
REMARK  166  A    between atoms: _423  and  _424
REMARK  167  A    between atoms: _423  and  _426
REMARK  168  A    between atoms: _426  and  _427
REMARK  169  A    between atoms: _429  and  _431
REMARK  170  A    between atoms: _431  and  _432
REMARK  171  A    between atoms: _431  and  _434
REMARK  172  A    between atoms: _434  and  _435
REMARK  173  A    between atoms: _438  and  _440
REMARK  174  A    between atoms: _440  and  _441
REMARK  175  A    between atoms: _440  and  _443
REMARK  176  A    between atoms: _443  and  _444
REMARK  177  A    between atoms: _450  and  _452
REMARK  178  A    between atoms: _452  and  _453
REMARK  179  A    between atoms: _452  and  _455
REMARK  180  A    between atoms: _455  and  _456
REMARK  181  A    between atoms: _456  and  _457
REMARK  182  A    between atoms: _457  and  _458
REMARK  183  A    between atoms: _467  and  _469
REMARK  184  A    between atoms: _469  and  _470
REMARK  185  A    between atoms: _469  and  _472
REMARK  186  A    between atoms: _472  and  _473
REMARK  187  A    between atoms: _479  and  _481
REMARK  188  A    between atoms: _481  and  _482
REMARK  189  A    between atoms: _481  and  _484
REMARK  190  A    between atoms: _484  and  _485
REMARK  191  A    between atoms: _487  and  _489
REMARK  192  A    between atoms: _489  and  _490
REMARK  193  A    between atoms: _489  and  _492
REMARK  194  A    between atoms: _492  and  _493
REMARK  195  A    between atoms: _498  and  _500
REMARK  196  A    between atoms: _500  and  _501
REMARK  197  A    between atoms: _500  and  _503
REMARK  198  A    between atoms: _503  and  _504
REMARK  199  A    between atoms: _504  and  _505
REMARK  200  A    between atoms: _508  and  _510
REMARK  201  A    between atoms: _510  and  _511
REMARK  202  A    between atoms: _513  and  _515
REMARK  203  A    between atoms: _515  and  _516
REMARK  204  A    between atoms: _515  and  _518
REMARK  205  A    between atoms: _518  and  _519
REMARK  206  A    between atoms: _521  and  _523
REMARK  207  A    between atoms: _523  and  _524
REMARK  208  A    between atoms: _523  and  _526
REMARK  209  A    between atoms: _526  and  _527
REMARK  210  A    between atoms: _533  and  _535
REMARK  211  A    between atoms: _535  and  _536
REMARK  212  A    between atoms: _535  and  _538
REMARK  213  A    between atoms: _538  and  _539
REMARK  214  A    between atoms: _545  and  _547
REMARK  215  A    between atoms: _547  and  _548
REMARK  216  A    between atoms: _547  and  _550
REMARK  217  A    between atoms: _550  and  _551
REMARK  218  A    between atoms: _554  and  _556
REMARK  219  A    between atoms: _556  and  _557
REMARK  220  A    between atoms: _556  and  _559
REMARK  221  A    between atoms: _559  and  _560
REMARK  222  A    between atoms: _563  and  _565
REMARK  223  A    between atoms: _565  and  _566
REMARK  224  A    between atoms: _565  and  _568
REMARK  225  A    between atoms: _568  and  _569
REMARK  226  A    between atoms: _574  and  _575
REMARK  227  A    between atoms: _577  and  _579
REMARK  228  A    between atoms: _579  and  _580
REMARK  229  A    between atoms: _582  and  _584
REMARK  230  A    between atoms: _584  and  _585
REMARK  231  A    between atoms: _588  and  _590
REMARK  232  A    between atoms: _590  and  _591
REMARK  233  A    between atoms: _590  and  _593
REMARK  234  A    between atoms: _593  and  _594
REMARK  235  A    between atoms: _597  and  _599
REMARK  236  A    between atoms: _599  and  _600
REMARK  237  A    between atoms: _599  and  _602
REMARK  238  A    between atoms: _602  and  _603
REMARK  239  A    between atoms: _605  and  _607
REMARK  240  A    between atoms: _607  and  _608
REMARK  241  A    between atoms: _607  and  _610
REMARK  242  A    between atoms: _613  and  _615
REMARK  243  A    between atoms: _615  and  _616
REMARK  244  A    between atoms: _615  and  _618
REMARK  245  A    between atoms: _618  and  _619
REMARK  246  A    between atoms: _624  and  _626
REMARK  247  A    between atoms: _626  and  _627
REMARK  248  A    between atoms: _626  and  _629
REMARK  249  A    between atoms: _629  and  _630
REMARK  250  A    between atoms: _640  and  _642
REMARK  251  A    between atoms: _642  and  _643
REMARK  252  A    between atoms: _642  and  _645
REMARK  253  A    between atoms: _645  and  _646
REMARK  254  A    between atoms: _646  and  _647
REMARK  255  A    between atoms: _649  and  _651
REMARK  256  A    between atoms: _651  and  _652
REMARK  257  A    between atoms: _651  and  _654
REMARK  258  A    between atoms: _654  and  _655
REMARK  259  A    between atoms: _658  and  _660
REMARK  260  A    between atoms: _660  and  _661
REMARK  261  A    between atoms: _660  and  _663
REMARK  262  A    between atoms: _663  and  _664
REMARK  263  A    between atoms: _669  and  _671
REMARK  264  A    between atoms: _671  and  _672
REMARK  265  A    between atoms: _674  and  _676
REMARK  266  A    between atoms: _676  and  _677
REMARK  267  A    between atoms: _676  and  _679
REMARK  268  A    between atoms: _679  and  _680
REMARK  269  A    between atoms: _685  and  _686
REMARK  270  A    between atoms: _688  and  _690
REMARK  271  A    between atoms: _690  and  _691
REMARK  272  A    between atoms: _690  and  _693
REMARK  273  A    between atoms: _693  and  _694
REMARK  274  A    between atoms: _694  and  _695
REMARK  275  A    between atoms: _698  and  _700
REMARK  276  A    between atoms: _700  and  _701
REMARK  277  A    between atoms: _700  and  _703
REMARK  278  A    between atoms: _703  and  _704
REMARK                            x       y       z     vdW  Elec       q    Type
REMARK                         _______ _______ _______ _____ _____    ______ ____
ROOT
ATOM      1  CA  PHE A   7      -1.101  60.195  60.002  0.00  0.00    +0.153 C 
ENDROOT
BRANCH   1   4
ATOM      2  C   GLY A   6       0.741  60.392  61.624  0.00  0.00    +0.243 C 
ATOM      3  O   GLY A   6       0.464  59.329  62.181  0.00  0.00    -0.273 OA
ATOM      4  N   PHE A   7       0.092  60.833  60.546  0.00  0.00    -0.297 N 
ATOM      5  H   PHE A   7       0.457  61.680  60.066  0.00  0.00    +0.150 HD
BRANCH   2   6
ATOM      6  CA  GLY A   6       1.942  61.226  62.101  0.00  0.00    +0.176 C 
BRANCH   6   9
ATOM      7  C   GLY A   5       0.991  63.474  62.102  0.00  0.00    +0.243 C 
ATOM      8  O   GLY A   5      -0.075  63.055  62.577  0.00  0.00    -0.273 OA
ATOM      9  N   GLY A   6       2.012  62.658  61.798  0.00  0.00    -0.295 N 
ATOM     10  H   GLY A   6       2.862  63.046  61.342  0.00  0.00    +0.150 HD
BRANCH   7  11
ATOM     11  CA  GLY A   5       1.150  64.980  61.832  0.00  0.00    +0.176 C 
BRANCH  11  13
ATOM     12  C   GLY A   4       2.028  65.111  59.618  0.00  0.00    +0.243 C 
ATOM     13  N   GLY A   5       1.000  65.319  60.430  0.00  0.00    -0.295 N 
ATOM     14  H   GLY A   5       0.108  65.715  60.070  0.00  0.00    +0.150 HD
ATOM     15  O   GLY A   4       3.116  64.649  60.005  0.00  0.00    -0.273 OA
BRANCH  12  16
ATOM     16  CA  GLY A   4       1.823  65.402  58.155  0.00  0.00    +0.176 C 
BRANCH  16  18
ATOM     17  C   TYR A   3       0.766  66.591  56.443  0.00  0.00    +0.241 C 
ATOM     18  N   GLY A   4       1.358  66.651  57.613  0.00  0.00    -0.295 N 
ATOM     19  H   GLY A   4       1.484  67.551  58.120  0.00  0.00    +0.150 HD
ATOM     20  O   TYR A   3       0.582  65.514  55.879  0.00  0.00    -0.273 OA
BRANCH  17  21
ATOM     21  CA  TYR A   3       0.376  67.924  55.812  0.00  0.00    +0.153 C 
BRANCH  21  23
ATOM     22  C   ILE A   2       1.088  67.487  53.539  0.00  0.00    +0.241 C 
ATOM     23  N   TYR A   3       0.101  67.819  54.391  0.00  0.00    -0.297 N 
ATOM     24  H   TYR A   3      -0.858  68.000  54.032  0.00  0.00    +0.150 HD
ATOM     25  O   ILE A   2       2.248  67.258  53.916  0.00  0.00    -0.273 OA
BRANCH  22  26
ATOM     26  CA  ILE A   2       0.756  67.397  52.036  0.00  0.00    +0.148 C 
BRANCH  26  28
ATOM     27  C   TRP A   1       0.827  69.438  50.688  0.00  0.00    +0.239 C 
ATOM     28  N   ILE A   2       1.460  68.461  51.308  0.00  0.00    -0.297 N 
ATOM     29  H   ILE A   2       2.499  68.443  51.280  0.00  0.00    +0.150 HD
ATOM     30  O   TRP A   1      -0.403  69.527  50.643  0.00  0.00    -0.274 OA
BRANCH  27  31
ATOM     31  CA  TRP A   1       1.724  70.472  50.022  0.00  0.00    +0.149 C 
BRANCH  31  32
ATOM     32  N   TRP A   1       1.354  70.747  48.646  0.00  0.00    -0.238 NA
ATOM     33  H   TRP A   1       0.692  71.531  48.478  0.00  0.00    +0.142 HD
ENDBRANCH  31  32
BRANCH  31  34
ATOM     34  CB  TRP A   1       1.666  71.771  50.839  0.00  0.00    +0.054 C 
BRANCH  34  35
ATOM     35  CG  TRP A   1       1.982  71.609  52.336  0.00  0.00    -0.002 A 
ATOM     36  CD1 TRP A   1       1.129  71.815  53.392  0.00  0.00    +0.068 A 
ATOM     37  NE1 TRP A   1       1.797  71.694  54.595  0.00  0.00    -0.352 N 
ATOM     38  HE1 TRP A   1       1.376  71.808  55.539  0.00  0.00    +0.166 HD
ATOM     39  CE2 TRP A   1       3.111  71.398  54.331  0.00  0.00    +0.056 A 
ATOM     40  CZ2 TRP A   1       4.188  71.196  55.213  0.00  0.00    +0.017 A 
ATOM     41  CH2 TRP A   1       5.428  70.930  54.648  0.00  0.00    +0.001 A 
ATOM     42  CZ3 TRP A   1       5.607  70.859  53.239  0.00  0.00    +0.000 A 
ATOM     43  CE3 TRP A   1       4.534  71.051  52.370  0.00  0.00    +0.001 A 
ATOM     44  CD2 TRP A   1       3.263  71.332  52.912  0.00  0.00    +0.013 A 
ENDBRANCH  34  35
ENDBRANCH  31  34
ENDBRANCH  27  31
ENDBRANCH  26  28
BRANCH  26  45
ATOM     45  CB  ILE A   2       1.192  66.008  51.494  0.00  0.00    +0.027 C 
ATOM     46  CG2 ILE A   2       0.408  64.905  52.243  0.00  0.00    +0.002 C 
BRANCH  45  47
ATOM     47  CG1 ILE A   2       0.947  65.964  49.988  0.00  0.00    +0.002 C 
ATOM     48  CD1 ILE A   2       1.382  64.654  49.333  0.00  0.00    +0.000 C 
ENDBRANCH  45  47
ENDBRANCH  26  45
ENDBRANCH  22  26
ENDBRANCH  21  23
BRANCH  21  49
ATOM     49  CB  TYR A   3      -0.777  68.625  56.582  0.00  0.00    +0.055 C 
BRANCH  49  50
ATOM     50  CG  TYR A   3      -2.149  67.990  56.513  0.00  0.00    -0.020 A 
ATOM     51  CD2 TYR A   3      -2.414  66.752  57.089  0.00  0.00    -0.001 A 
ATOM     52  CE2 TYR A   3      -3.702  66.220  57.058  0.00  0.00    +0.036 A 
ATOM     53  CZ  TYR A   3      -4.728  66.948  56.445  0.00  0.00    +0.134 A 
ATOM     54  CE1 TYR A   3      -4.468  68.167  55.882  0.00  0.00    +0.036 A 
ATOM     55  CD1 TYR A   3      -3.201  68.673  55.910  0.00  0.00    -0.001 A 
BRANCH  53  56
ATOM     56  OH  TYR A   3      -6.042  66.494  56.385  0.00  0.00    -0.506 OA
ATOM     57  HH  TYR A   3      -6.633  67.136  56.852  0.00  0.00    +0.292 HD
ENDBRANCH  53  56
ENDBRANCH  49  50
ENDBRANCH  21  49
ENDBRANCH  17  21
ENDBRANCH  16  18
ENDBRANCH  12  16
ENDBRANCH  11  13
ENDBRANCH   7  11
ENDBRANCH   6   9
ENDBRANCH   2   6
ENDBRANCH   1   4
BRANCH   1  58
ATOM     58  C   PHE A   7      -2.325  60.274  60.955  0.00  0.00    +0.241 C 
ATOM     59  N   TYR A   8      -2.173  60.917  62.125  0.00  0.00    -0.297 N 
ATOM     60  H   TYR A   8      -1.252  61.324  62.385  0.00  0.00    +0.150 HD
ATOM     61  O   PHE A   7      -3.423  59.777  60.599  0.00  0.00    -0.273 OA
BRANCH  59  62
ATOM     62  CA  TYR A   8      -3.321  61.039  63.034  0.00  0.00    +0.153 C 
BRANCH  62  63
ATOM     63  C   TYR A   8      -3.790  62.493  63.190  0.00  0.00    +0.241 C 
ATOM     64  O   TYR A   8      -4.810  62.736  63.860  0.00  0.00    -0.273 OA
ATOM     65  N   SER A   9      -3.052  63.460  62.624  0.00  0.00    -0.295 N 
ATOM     66  H   SER A   9      -2.185  63.217  62.104  0.00  0.00    +0.150 HD
BRANCH  65  67
ATOM     67  CA  SER A   9      -3.468  64.854  62.740  0.00  0.00    +0.178 C 
BRANCH  67  68
ATOM     68  C   SER A   9      -2.915  65.633  61.577  0.00  0.00    +0.243 C 
ATOM     69  N   GLY A  10      -3.330  66.902  61.504  0.00  0.00    -0.295 N 
ATOM     70  H   GLY A  10      -3.955  67.277  62.245  0.00  0.00    +0.150 HD
ATOM     71  O   SER A   9      -2.136  65.088  60.757  0.00  0.00    -0.273 OA
BRANCH  69  72
ATOM     72  CA  GLY A  10      -2.921  67.775  60.400  0.00  0.00    +0.176 C 
BRANCH  72  73
ATOM     73  C   GLY A  10      -4.119  68.530  59.785  0.00  0.00    +0.243 C 
ATOM     74  O   GLY A  10      -5.242  68.016  59.774  0.00  0.00    -0.273 OA
ATOM     75  N   SER A  11      -3.863  69.743  59.300  0.00  0.00    -0.295 N 
ATOM     76  H   SER A  11      -2.884  70.092  59.346  0.00  0.00    +0.150 HD
BRANCH  75  77
ATOM     77  CA  SER A  11      -4.868  70.605  58.712  0.00  0.00    +0.178 C 
BRANCH  77  78
ATOM     78  C   SER A  11      -4.185  71.354  57.598  0.00  0.00    +0.243 C 
ATOM     79  O   SER A  11      -2.992  71.675  57.686  0.00  0.00    -0.273 OA
ATOM     80  N   SER A  12      -4.926  71.677  56.550  0.00  0.00    -0.295 N 
ATOM     81  H   SER A  12      -5.935  71.427  56.515  0.00  0.00    +0.150 HD
BRANCH  80  82
ATOM     82  CA  SER A  12      -4.295  72.391  55.446  0.00  0.00    +0.178 C 
BRANCH  82  83
ATOM     83  C   SER A  12      -4.373  73.890  55.674  0.00  0.00    +0.243 C 
ATOM     84  N   THR A  13      -4.980  74.266  56.791  0.00  0.00    -0.295 N 
ATOM     85  H   THR A  13      -5.257  73.544  57.486  0.00  0.00    +0.150 HD
ATOM     86  O   SER A  12      -3.863  74.685  54.862  0.00  0.00    -0.273 OA
BRANCH  84  87
ATOM     87  CA  THR A  13      -5.269  75.668  57.068  0.00  0.00    +0.176 C 
BRANCH  87  88
ATOM     88  C   THR A  13      -4.417  76.327  58.130  0.00  0.00    +0.243 C 
ATOM     89  N   LEU A  14      -3.433  75.614  58.671  0.00  0.00    -0.298 N 
ATOM     90  H   LEU A  14      -3.255  74.640  58.352  0.00  0.00    +0.150 HD
ATOM     91  O   THR A  13      -4.680  77.470  58.496  0.00  0.00    -0.273 OA
BRANCH  89  92
ATOM     92  CA  LEU A  14      -2.604  76.211  59.718  0.00  0.00    +0.137 C 
BRANCH  92  93
ATOM     93  C   LEU A  14      -1.925  77.517  59.311  0.00  0.00    +0.227 C 
ATOM     94  O   LEU A  14      -1.583  77.705  58.156  0.00  0.00    -0.286 OA
ENDBRANCH  92  93
BRANCH  92  95
ATOM     95  CB  LEU A  14      -1.514  75.231  60.122  0.00  0.00    +0.028 C 
BRANCH  95  96
ATOM     96  CG  LEU A  14      -2.003  73.838  60.557  0.00  0.00    +0.002 C 
ATOM     97  CD2 LEU A  14      -2.971  73.962  61.730  0.00  0.00    +0.000 C 
ATOM     98  CD1 LEU A  14      -0.759  72.973  60.935  0.00  0.00    +0.000 C 
ENDBRANCH  95  96
ENDBRANCH  92  95
ENDBRANCH  89  92
ENDBRANCH  87  88
BRANCH  87  99
ATOM     99  CB  THR A  13      -6.734  75.777  57.545  0.00  0.00    +0.137 C 
ATOM    100  CG2 THR A  13      -7.699  75.199  56.489  0.00  0.00    +0.034 C 
BRANCH  99 101
ATOM    101  OG1 THR A  13      -6.888  75.003  58.753  0.00  0.00    -0.382 OA
ATOM    102  HG1 THR A  13      -6.280  75.357  59.450  0.00  0.00    +0.210 HD
ENDBRANCH  99 101
ENDBRANCH  87  99
ENDBRANCH  84  87
ENDBRANCH  82  83
BRANCH  82 103
ATOM    103  CB  SER A  12      -5.017  72.075  54.142  0.00  0.00    +0.166 C 
BRANCH 103 104
ATOM    104  OG  SER A  12      -6.329  72.625  54.174  0.00  0.00    -0.380 OA
ATOM    105  H   SER A  12      -6.794  72.417  53.325  0.00  0.00    +0.211 HD
ENDBRANCH 103 104
ENDBRANCH  82 103
ENDBRANCH  80  82
ENDBRANCH  77  78
BRANCH  77 106
ATOM    106  CB  SER A  11      -5.375  71.628  59.747  0.00  0.00    +0.166 C 
BRANCH 106 107
ATOM    107  OG  SER A  11      -5.979  70.967  60.866  0.00  0.00    -0.380 OA
ATOM    108  H   SER A  11      -5.311  70.379  61.300  0.00  0.00    +0.211 HD
ENDBRANCH 106 107
ENDBRANCH  77 106
ENDBRANCH  75  77
ENDBRANCH  72  73
ENDBRANCH  69  72
ENDBRANCH  67  68
BRANCH  67 109
ATOM    109  CB  SER A   9      -3.012  65.481  64.086  0.00  0.00    +0.166 C 
BRANCH 109 110
ATOM    110  OG  SER A   9      -1.619  65.750  64.063  0.00  0.00    -0.380 OA
ATOM    111  H   SER A   9      -1.347  66.149  64.927  0.00  0.00    +0.211 HD
ENDBRANCH 109 110
ENDBRANCH  67 109
ENDBRANCH  65  67
ENDBRANCH  62  63
BRANCH  62 112
ATOM    112  CB  TYR A   8      -3.024  60.465  64.440  0.00  0.00    +0.055 C 
BRANCH 112 113
ATOM    113  CG  TYR A   8      -2.050  61.294  65.266  0.00  0.00    -0.020 A 
ATOM    114  CD2 TYR A   8      -2.498  62.363  66.027  0.00  0.00    -0.001 A 
ATOM    115  CE2 TYR A   8      -1.587  63.232  66.712  0.00  0.00    +0.036 A 
ATOM    116  CZ  TYR A   8      -0.242  62.993  66.631  0.00  0.00    +0.134 A 
ATOM    117  CE1 TYR A   8       0.243  61.898  65.868  0.00  0.00    +0.036 A 
ATOM    118  CD1 TYR A   8      -0.666  61.065  65.192  0.00  0.00    -0.001 A 
BRANCH 116 119
ATOM    119  OH  TYR A   8       0.620  63.846  67.299  0.00  0.00    -0.506 OA
ATOM    120  HH  TYR A   8       0.095  64.541  67.770  0.00  0.00    +0.292 HD
ENDBRANCH 116 119
ENDBRANCH 112 113
ENDBRANCH  62 112
ENDBRANCH  59  62
ENDBRANCH   1  58
BRANCH   1 121
ATOM    121  CB  PHE A   7      -0.851  58.738  59.570  0.00  0.00    +0.055 C 
BRANCH 121 122
ATOM    122  CG  PHE A   7       0.108  58.617  58.414  0.00  0.00    -0.020 A 
ATOM    123  CD2 PHE A   7       1.381  58.108  58.611  0.00  0.00    -0.004 A 
ATOM    124  CE2 PHE A   7       2.288  57.995  57.545  0.00  0.00    -0.000 A 
ATOM    125  CZ  PHE A   7       1.903  58.403  56.259  0.00  0.00    -0.000 A 
ATOM    126  CE1 PHE A   7       0.619  58.920  56.066  0.00  0.00    -0.000 A 
ATOM    127  CD1 PHE A   7      -0.260  59.021  57.141  0.00  0.00    -0.004 A 
ENDBRANCH 121 122
ENDBRANCH   1 121
TORSDOF 50
REMARK  Name = ../refined-set-2016/1h23/1h23_pocket.pdb
REMARK  278 active torsions:
REMARK  status: ('A' for Active; 'I' for Inactive)
REMARK    1  A    between atoms: _1  and  _3
REMARK    2  A    between atoms: _3  and  _4
REMARK    3  A    between atoms: _3  and  _6
REMARK    4  A    between atoms: _6  and  _7
REMARK    5  A    between atoms: _7  and  _8
REMARK    6  A    between atoms: _13  and  _15
REMARK    7  A    between atoms: _15  and  _16
REMARK    8  A    between atoms: _15  and  _18
REMARK    9  A    between atoms: _18  and  _19
REMARK   10  A    between atoms: _24  and  _25
REMARK   11  A    between atoms: _27  and  _29
REMARK   12  A    between atoms: _29  and  _30
REMARK   13  A    between atoms: _29  and  _32
REMARK   14  A    between atoms: _35  and  _37
REMARK   15  A    between atoms: _37  and  _38
REMARK   16  A    between atoms: _37  and  _40
REMARK   17  A    between atoms: _40  and  _41
REMARK   18  A    between atoms: _44  and  _46
REMARK   19  A    between atoms: _46  and  _47
REMARK   20  A    between atoms: _46  and  _49
REMARK   21  A    between atoms: _49  and  _50
REMARK   22  A    between atoms: _50  and  _51
REMARK   23  A    between atoms: _54  and  _56
REMARK   24  A    between atoms: _56  and  _57
REMARK   25  A    between atoms: _56  and  _59
REMARK   26  A    between atoms: _59  and  _60
REMARK   27  A    between atoms: _60  and  _61
REMARK   28  A    between atoms: _66  and  _68
REMARK   29  A    between atoms: _68  and  _69
REMARK   30  A    between atoms: _68  and  _71
REMARK   31  A    between atoms: _71  and  _72
REMARK   32  A    between atoms: _78  and  _80
REMARK   33  A    between atoms: _80  and  _81
REMARK   34  A    between atoms: _83  and  _85
REMARK   35  A    between atoms: _85  and  _86
REMARK   36  A    between atoms: _85  and  _88
REMARK   37  A    between atoms: _88  and  _89
REMARK   38  A    between atoms: _91  and  _93
REMARK   39  A    between atoms: _93  and  _94
REMARK   40  A    between atoms: _93  and  _96
REMARK   41  A    between atoms: _96  and  _97
REMARK   42  A    between atoms: _97  and  _98
REMARK   43  A    between atoms: _100  and  _102
REMARK   44  A    between atoms: _102  and  _103
REMARK   45  A    between atoms: _102  and  _105
REMARK   46  A    between atoms: _105  and  _106
REMARK   47  A    between atoms: _116  and  _118
REMARK   48  A    between atoms: _118  and  _119
REMARK   49  A    between atoms: _118  and  _121
REMARK   50  A    between atoms: _121  and  _122
REMARK   51  A    between atoms: _128  and  _129
REMARK   52  A    between atoms: _134  and  _136
REMARK   53  A    between atoms: _136  and  _137
REMARK   54  A    between atoms: _136  and  _139
REMARK   55  A    between atoms: _139  and  _140
REMARK   56  A    between atoms: _150  and  _152
REMARK   57  A    between atoms: _152  and  _153
REMARK   58  A    between atoms: _152  and  _155
REMARK   59  A    between atoms: _155  and  _156
REMARK   60  A    between atoms: _159  and  _161
REMARK   61  A    between atoms: _161  and  _162
REMARK   62  A    between atoms: _161  and  _164
REMARK   63  A    between atoms: _164  and  _165
REMARK   64  A    between atoms: _170  and  _171
REMARK   65  A    between atoms: _173  and  _175
REMARK   66  A    between atoms: _175  and  _176
REMARK   67  A    between atoms: _178  and  _180
REMARK   68  A    between atoms: _180  and  _181
REMARK   69  A    between atoms: _183  and  _185
REMARK   70  A    between atoms: _185  and  _186
REMARK   71  A    between atoms: _188  and  _190
REMARK   72  A    between atoms: _190  and  _191
REMARK   73  A    between atoms: _190  and  _193
REMARK   74  A    between atoms: _193  and  _194
REMARK   75  A    between atoms: _200  and  _202
REMARK   76  A    between atoms: _202  and  _203
REMARK   77  A    between atoms: _202  and  _205
REMARK   78  A    between atoms: _205  and  _206
REMARK   79  A    between atoms: _211  and  _212
REMARK   80  A    between atoms: _214  and  _216
REMARK   81  A    between atoms: _216  and  _217
REMARK   82  A    between atoms: _216  and  _219
REMARK   83  A    between atoms: _219  and  _220
REMARK   84  A    between atoms: _222  and  _224
REMARK   85  A    between atoms: _224  and  _225
REMARK   86  A    between atoms: _227  and  _229
REMARK   87  A    between atoms: _229  and  _230
REMARK   88  A    between atoms: _229  and  _232
REMARK   89  A    between atoms: _232  and  _233
REMARK   90  A    between atoms: _235  and  _237
REMARK   91  A    between atoms: _237  and  _238
REMARK   92  A    between atoms: _237  and  _240
REMARK   93  A    between atoms: _240  and  _241
REMARK   94  A    between atoms: _243  and  _245
REMARK   95  A    between atoms: _245  and  _246
REMARK   96  A    between atoms: _245  and  _248
REMARK   97  A    between atoms: _248  and  _249
REMARK   98  A    between atoms: _252  and  _254
REMARK   99  A    between atoms: _254  and  _255
REMARK  100  A    between atoms: _254  and  _257
REMARK  101  A    between atoms: _257  and  _258
REMARK  102  A    between atoms: _261  and  _263
REMARK  103  A    between atoms: _263  and  _264
REMARK  104  A    between atoms: _263  and  _266
REMARK  105  A    between atoms: _269  and  _271
REMARK  106  A    between atoms: _271  and  _272
REMARK  107  A    between atoms: _271  and  _274
REMARK  108  A    between atoms: _274  and  _275
REMARK  109  A    between atoms: _280  and  _281
REMARK  110  A    between atoms: _283  and  _285
REMARK  111  A    between atoms: _285  and  _286
REMARK  112  A    between atoms: _285  and  _288
REMARK  113  A    between atoms: _288  and  _289
REMARK  114  A    between atoms: _294  and  _295
REMARK  115  A    between atoms: _297  and  _299
REMARK  116  A    between atoms: _299  and  _300
REMARK  117  A    between atoms: _299  and  _302
REMARK  118  A    between atoms: _305  and  _307
REMARK  119  A    between atoms: _307  and  _308
REMARK  120  A    between atoms: _307  and  _310
REMARK  121  A    between atoms: _310  and  _311
REMARK  122  A    between atoms: _311  and  _312
REMARK  123  A    between atoms: _315  and  _317
REMARK  124  A    between atoms: _317  and  _318
REMARK  125  A    between atoms: _317  and  _320
REMARK  126  A    between atoms: _320  and  _321
REMARK  127  A    between atoms: _323  and  _325
REMARK  128  A    between atoms: _325  and  _326
REMARK  129  A    between atoms: _329  and  _331
REMARK  130  A    between atoms: _331  and  _332
REMARK  131  A    between atoms: _334  and  _336
REMARK  132  A    between atoms: _336  and  _337
REMARK  133  A    between atoms: _336  and  _339
REMARK  134  A    between atoms: _339  and  _340
REMARK  135  A    between atoms: _340  and  _341
REMARK  136  A    between atoms: _346  and  _348
REMARK  137  A    between atoms: _348  and  _349
REMARK  138  A    between atoms: _348  and  _351
REMARK  139  A    between atoms: _351  and  _352
REMARK  140  A    between atoms: _354  and  _356
REMARK  141  A    between atoms: _356  and  _357
REMARK  142  A    between atoms: _356  and  _359
REMARK  143  A    between atoms: _359  and  _360
REMARK  144  A    between atoms: _360  and  _361
REMARK  145  A    between atoms: _364  and  _366
REMARK  146  A    between atoms: _366  and  _367
REMARK  147  A    between atoms: _366  and  _369
REMARK  148  A    between atoms: _369  and  _370
REMARK  149  A    between atoms: _380  and  _382
REMARK  150  A    between atoms: _382  and  _383
REMARK  151  A    between atoms: _382  and  _385
REMARK  152  A    between atoms: _385  and  _386
REMARK  153  A    between atoms: _391  and  _393
REMARK  154  A    between atoms: _393  and  _394
REMARK  155  A    between atoms: _393  and  _396
REMARK  156  A    between atoms: _396  and  _397
REMARK  157  A    between atoms: _400  and  _402
REMARK  158  A    between atoms: _402  and  _403
REMARK  159  A    between atoms: _402  and  _405
REMARK  160  A    between atoms: _405  and  _406
REMARK  161  A    between atoms: _412  and  _414
REMARK  162  A    between atoms: _414  and  _415
REMARK  163  A    between atoms: _414  and  _417
REMARK  164  A    between atoms: _417  and  _418
REMARK  165  A    between atoms: _421  and  _423
REMARK  166  A    between atoms: _423  and  _424
REMARK  167  A    between atoms: _423  and  _426
REMARK  168  A    between atoms: _426  and  _427
REMARK  169  A    between atoms: _429  and  _431
REMARK  170  A    between atoms: _431  and  _432
REMARK  171  A    between atoms: _431  and  _434
REMARK  172  A    between atoms: _434  and  _435
REMARK  173  A    between atoms: _438  and  _440
REMARK  174  A    between atoms: _440  and  _441
REMARK  175  A    between atoms: _440  and  _443
REMARK  176  A    between atoms: _443  and  _444
REMARK  177  A    between atoms: _450  and  _452
REMARK  178  A    between atoms: _452  and  _453
REMARK  179  A    between atoms: _452  and  _455
REMARK  180  A    between atoms: _455  and  _456
REMARK  181  A    between atoms: _456  and  _457
REMARK  182  A    between atoms: _457  and  _458
REMARK  183  A    between atoms: _467  and  _469
REMARK  184  A    between atoms: _469  and  _470
REMARK  185  A    between atoms: _469  and  _472
REMARK  186  A    between atoms: _472  and  _473
REMARK  187  A    between atoms: _479  and  _481
REMARK  188  A    between atoms: _481  and  _482
REMARK  189  A    between atoms: _481  and  _484
REMARK  190  A    between atoms: _484  and  _485
REMARK  191  A    between atoms: _487  and  _489
REMARK  192  A    between atoms: _489  and  _490
REMARK  193  A    between atoms: _489  and  _492
REMARK  194  A    between atoms: _492  and  _493
REMARK  195  A    between atoms: _498  and  _500
REMARK  196  A    between atoms: _500  and  _501
REMARK  197  A    between atoms: _500  and  _503
REMARK  198  A    between atoms: _503  and  _504
REMARK  199  A    between atoms: _504  and  _505
REMARK  200  A    between atoms: _508  and  _510
REMARK  201  A    between atoms: _510  and  _511
REMARK  202  A    between atoms: _513  and  _515
REMARK  203  A    between atoms: _515  and  _516
REMARK  204  A    between atoms: _515  and  _518
REMARK  205  A    between atoms: _518  and  _519
REMARK  206  A    between atoms: _521  and  _523
REMARK  207  A    between atoms: _523  and  _524
REMARK  208  A    between atoms: _523  and  _526
REMARK  209  A    between atoms: _526  and  _527
REMARK  210  A    between atoms: _533  and  _535
REMARK  211  A    between atoms: _535  and  _536
REMARK  212  A    between atoms: _535  and  _538
REMARK  213  A    between atoms: _538  and  _539
REMARK  214  A    between atoms: _545  and  _547
REMARK  215  A    between atoms: _547  and  _548
REMARK  216  A    between atoms: _547  and  _550
REMARK  217  A    between atoms: _550  and  _551
REMARK  218  A    between atoms: _554  and  _556
REMARK  219  A    between atoms: _556  and  _557
REMARK  220  A    between atoms: _556  and  _559
REMARK  221  A    between atoms: _559  and  _560
REMARK  222  A    between atoms: _563  and  _565
REMARK  223  A    between atoms: _565  and  _566
REMARK  224  A    between atoms: _565  and  _568
REMARK  225  A    between atoms: _568  and  _569
REMARK  226  A    between atoms: _574  and  _575
REMARK  227  A    between atoms: _577  and  _579
REMARK  228  A    between atoms: _579  and  _580
REMARK  229  A    between atoms: _582  and  _584
REMARK  230  A    between atoms: _584  and  _585
REMARK  231  A    between atoms: _588  and  _590
REMARK  232  A    between atoms: _590  and  _591
REMARK  233  A    between atoms: _590  and  _593
REMARK  234  A    between atoms: _593  and  _594
REMARK  235  A    between atoms: _597  and  _599
REMARK  236  A    between atoms: _599  and  _600
REMARK  237  A    between atoms: _599  and  _602
REMARK  238  A    between atoms: _602  and  _603
REMARK  239  A    between atoms: _605  and  _607
REMARK  240  A    between atoms: _607  and  _608
REMARK  241  A    between atoms: _607  and  _610
REMARK  242  A    between atoms: _613  and  _615
REMARK  243  A    between atoms: _615  and  _616
REMARK  244  A    between atoms: _615  and  _618
REMARK  245  A    between atoms: _618  and  _619
REMARK  246  A    between atoms: _624  and  _626
REMARK  247  A    between atoms: _626  and  _627
REMARK  248  A    between atoms: _626  and  _629
REMARK  249  A    between atoms: _629  and  _630
REMARK  250  A    between atoms: _640  and  _642
REMARK  251  A    between atoms: _642  and  _643
REMARK  252  A    between atoms: _642  and  _645
REMARK  253  A    between atoms: _645  and  _646
REMARK  254  A    between atoms: _646  and  _647
REMARK  255  A    between atoms: _649  and  _651
REMARK  256  A    between atoms: _651  and  _652
REMARK  257  A    between atoms: _651  and  _654
REMARK  258  A    between atoms: _654  and  _655
REMARK  259  A    between atoms: _658  and  _660
REMARK  260  A    between atoms: _660  and  _661
REMARK  261  A    between atoms: _660  and  _663
REMARK  262  A    between atoms: _663  and  _664
REMARK  263  A    between atoms: _669  and  _671
REMARK  264  A    between atoms: _671  and  _672
REMARK  265  A    between atoms: _674  and  _676
REMARK  266  A    between atoms: _676  and  _677
REMARK  267  A    between atoms: _676  and  _679
REMARK  268  A    between atoms: _679  and  _680
REMARK  269  A    between atoms: _685  and  _686
REMARK  270  A    between atoms: _688  and  _690
REMARK  271  A    between atoms: _690  and  _691
REMARK  272  A    between atoms: _690  and  _693
REMARK  273  A    between atoms: _693  and  _694
REMARK  274  A    between atoms: _694  and  _695
REMARK  275  A    between atoms: _698  and  _700
REMARK  276  A    between atoms: _700  and  _701
REMARK  277  A    between atoms: _700  and  _703
REMARK  278  A    between atoms: _703  and  _704
REMARK                            x       y       z     vdW  Elec       q    Type
REMARK                         _______ _______ _______ _____ _____    ______ ____
ROOT
ATOM      1  CA  TYR A   2       0.996  76.593  55.999  0.00  0.00    +0.141 C 
ENDROOT
BRANCH   1   3
ATOM      2  C   VAL A   1       2.339  77.490  57.821  0.00  0.00    +0.238 C 
ATOM      3  N   TYR A   2       1.128  77.117  57.384  0.00  0.00    -0.298 N 
ATOM      4  H   TYR A   2       0.296  77.193  58.003  0.00  0.00    +0.150 HD
ATOM      5  O   VAL A   1       3.354  77.333  57.153  0.00  0.00    -0.274 OA
BRANCH   2   6
ATOM      6  CA  VAL A   1       2.501  78.046  59.217  0.00  0.00    +0.145 C 
BRANCH   6   7
ATOM      7  CB  VAL A   1       3.433  76.943  59.853  0.00  0.00    +0.025 C 
ATOM      8  CG2 VAL A   1       4.506  77.533  60.669  0.00  0.00    +0.002 C 
ATOM      9  CG1 VAL A   1       2.616  75.910  60.537  0.00  0.00    +0.002 C 
ENDBRANCH   6   7
BRANCH   6  10
ATOM     10  N   VAL A   1       1.174  78.298  59.825  0.00  0.00    -0.238 NA
ATOM     11  H   VAL A   1       0.823  77.726  60.619  0.00  0.00    +0.142 HD
ENDBRANCH   6  10
ENDBRANCH   2   6
ENDBRANCH   1   3
BRANCH   1  12
ATOM     12  C   TYR A   2       0.395  77.627  55.011  0.00  0.00    +0.227 C 
ATOM     13  O   TYR A   2      -0.003  77.271  53.890  0.00  0.00    -0.286 OA
ENDBRANCH   1  12
BRANCH   1  14
ATOM     14  CB  TYR A   2       0.110  75.316  55.943  0.00  0.00    +0.054 C 
BRANCH  14  15
ATOM     15  CG  TYR A   2       0.604  74.111  56.725  0.00  0.00    -0.020 A 
ATOM     16  CD2 TYR A   2      -0.297  73.091  57.115  0.00  0.00    -0.001 A 
ATOM     17  CE2 TYR A   2       0.131  71.970  57.839  0.00  0.00    +0.036 A 
ATOM     18  CZ  TYR A   2       1.482  71.857  58.176  0.00  0.00    +0.134 A 
ATOM     19  CE1 TYR A   2       2.412  72.860  57.806  0.00  0.00    +0.036 A 
ATOM     20  CD1 TYR A   2       1.963  73.978  57.076  0.00  0.00    -0.001 A 
BRANCH  18  21
ATOM     21  OH  TYR A   2       1.935  70.731  58.813  0.00  0.00    -0.506 OA
ATOM     22  HH  TYR A   2       1.462  70.629  59.677  0.00  0.00    +0.292 HD
ENDBRANCH  18  21
ENDBRANCH  14  15
ENDBRANCH   1  14
TORSDOF 8
REMARK  Name = ../refined-set-2016/1h23/1h23_pocket.pdb
REMARK  278 active torsions:
REMARK  status: ('A' for Active; 'I' for Inactive)
REMARK    1  A    between atoms: _1  and  _3
REMARK    2  A    between atoms: _3  and  _4
REMARK    3  A    between atoms: _3  and  _6
REMARK    4  A    between atoms: _6  and  _7
REMARK    5  A    between atoms: _7  and  _8
REMARK    6  A    between atoms: _13  and  _15
REMARK    7  A    between atoms: _15  and  _16
REMARK    8  A    between atoms: _15  and  _18
REMARK    9  A    between atoms: _18  and  _19
REMARK   10  A    between atoms: _24  and  _25
REMARK   11  A    between atoms: _27  and  _29
REMARK   12  A    between atoms: _29  and  _30
REMARK   13  A    between atoms: _29  and  _32
REMARK   14  A    between atoms: _35  and  _37
REMARK   15  A    between atoms: _37  and  _38
REMARK   16  A    between atoms: _37  and  _40
REMARK   17  A    between atoms: _40  and  _41
REMARK   18  A    between atoms: _44  and  _46
REMARK   19  A    between atoms: _46  and  _47
REMARK   20  A    between atoms: _46  and  _49
REMARK   21  A    between atoms: _49  and  _50
REMARK   22  A    between atoms: _50  and  _51
REMARK   23  A    between atoms: _54  and  _56
REMARK   24  A    between atoms: _56  and  _57
REMARK   25  A    between atoms: _56  and  _59
REMARK   26  A    between atoms: _59  and  _60
REMARK   27  A    between atoms: _60  and  _61
REMARK   28  A    between atoms: _66  and  _68
REMARK   29  A    between atoms: _68  and  _69
REMARK   30  A    between atoms: _68  and  _71
REMARK   31  A    between atoms: _71  and  _72
REMARK   32  A    between atoms: _78  and  _80
REMARK   33  A    between atoms: _80  and  _81
REMARK   34  A    between atoms: _83  and  _85
REMARK   35  A    between atoms: _85  and  _86
REMARK   36  A    between atoms: _85  and  _88
REMARK   37  A    between atoms: _88  and  _89
REMARK   38  A    between atoms: _91  and  _93
REMARK   39  A    between atoms: _93  and  _94
REMARK   40  A    between atoms: _93  and  _96
REMARK   41  A    between atoms: _96  and  _97
REMARK   42  A    between atoms: _97  and  _98
REMARK   43  A    between atoms: _100  and  _102
REMARK   44  A    between atoms: _102  and  _103
REMARK   45  A    between atoms: _102  and  _105
REMARK   46  A    between atoms: _105  and  _106
REMARK   47  A    between atoms: _116  and  _118
REMARK   48  A    between atoms: _118  and  _119
REMARK   49  A    between atoms: _118  and  _121
REMARK   50  A    between atoms: _121  and  _122
REMARK   51  A    between atoms: _128  and  _129
REMARK   52  A    between atoms: _134  and  _136
REMARK   53  A    between atoms: _136  and  _137
REMARK   54  A    between atoms: _136  and  _139
REMARK   55  A    between atoms: _139  and  _140
REMARK   56  A    between atoms: _150  and  _152
REMARK   57  A    between atoms: _152  and  _153
REMARK   58  A    between atoms: _152  and  _155
REMARK   59  A    between atoms: _155  and  _156
REMARK   60  A    between atoms: _159  and  _161
REMARK   61  A    between atoms: _161  and  _162
REMARK   62  A    between atoms: _161  and  _164
REMARK   63  A    between atoms: _164  and  _165
REMARK   64  A    between atoms: _170  and  _171
REMARK   65  A    between atoms: _173  and  _175
REMARK   66  A    between atoms: _175  and  _176
REMARK   67  A    between atoms: _178  and  _180
REMARK   68  A    between atoms: _180  and  _181
REMARK   69  A    between atoms: _183  and  _185
REMARK   70  A    between atoms: _185  and  _186
REMARK   71  A    between atoms: _188  and  _190
REMARK   72  A    between atoms: _190  and  _191
REMARK   73  A    between atoms: _190  and  _193
REMARK   74  A    between atoms: _193  and  _194
REMARK   75  A    between atoms: _200  and  _202
REMARK   76  A    between atoms: _202  and  _203
REMARK   77  A    between atoms: _202  and  _205
REMARK   78  A    between atoms: _205  and  _206
REMARK   79  A    between atoms: _211  and  _212
REMARK   80  A    between atoms: _214  and  _216
REMARK   81  A    between atoms: _216  and  _217
REMARK   82  A    between atoms: _216  and  _219
REMARK   83  A    between atoms: _219  and  _220
REMARK   84  A    between atoms: _222  and  _224
REMARK   85  A    between atoms: _224  and  _225
REMARK   86  A    between atoms: _227  and  _229
REMARK   87  A    between atoms: _229  and  _230
REMARK   88  A    between atoms: _229  and  _232
REMARK   89  A    between atoms: _232  and  _233
REMARK   90  A    between atoms: _235  and  _237
REMARK   91  A    between atoms: _237  and  _238
REMARK   92  A    between atoms: _237  and  _240
REMARK   93  A    between atoms: _240  and  _241
REMARK   94  A    between atoms: _243  and  _245
REMARK   95  A    between atoms: _245  and  _246
REMARK   96  A    between atoms: _245  and  _248
REMARK   97  A    between atoms: _248  and  _249
REMARK   98  A    between atoms: _252  and  _254
REMARK   99  A    between atoms: _254  and  _255
REMARK  100  A    between atoms: _254  and  _257
REMARK  101  A    between atoms: _257  and  _258
REMARK  102  A    between atoms: _261  and  _263
REMARK  103  A    between atoms: _263  and  _264
REMARK  104  A    between atoms: _263  and  _266
REMARK  105  A    between atoms: _269  and  _271
REMARK  106  A    between atoms: _271  and  _272
REMARK  107  A    between atoms: _271  and  _274
REMARK  108  A    between atoms: _274  and  _275
REMARK  109  A    between atoms: _280  and  _281
REMARK  110  A    between atoms: _283  and  _285
REMARK  111  A    between atoms: _285  and  _286
REMARK  112  A    between atoms: _285  and  _288
REMARK  113  A    between atoms: _288  and  _289
REMARK  114  A    between atoms: _294  and  _295
REMARK  115  A    between atoms: _297  and  _299
REMARK  116  A    between atoms: _299  and  _300
REMARK  117  A    between atoms: _299  and  _302
REMARK  118  A    between atoms: _305  and  _307
REMARK  119  A    between atoms: _307  and  _308
REMARK  120  A    between atoms: _307  and  _310
REMARK  121  A    between atoms: _310  and  _311
REMARK  122  A    between atoms: _311  and  _312
REMARK  123  A    between atoms: _315  and  _317
REMARK  124  A    between atoms: _317  and  _318
REMARK  125  A    between atoms: _317  and  _320
REMARK  126  A    between atoms: _320  and  _321
REMARK  127  A    between atoms: _323  and  _325
REMARK  128  A    between atoms: _325  and  _326
REMARK  129  A    between atoms: _329  and  _331
REMARK  130  A    between atoms: _331  and  _332
REMARK  131  A    between atoms: _334  and  _336
REMARK  132  A    between atoms: _336  and  _337
REMARK  133  A    between atoms: _336  and  _339
REMARK  134  A    between atoms: _339  and  _340
REMARK  135  A    between atoms: _340  and  _341
REMARK  136  A    between atoms: _346  and  _348
REMARK  137  A    between atoms: _348  and  _349
REMARK  138  A    between atoms: _348  and  _351
REMARK  139  A    between atoms: _351  and  _352
REMARK  140  A    between atoms: _354  and  _356
REMARK  141  A    between atoms: _356  and  _357
REMARK  142  A    between atoms: _356  and  _359
REMARK  143  A    between atoms: _359  and  _360
REMARK  144  A    between atoms: _360  and  _361
REMARK  145  A    between atoms: _364  and  _366
REMARK  146  A    between atoms: _366  and  _367
REMARK  147  A    between atoms: _366  and  _369
REMARK  148  A    between atoms: _369  and  _370
REMARK  149  A    between atoms: _380  and  _382
REMARK  150  A    between atoms: _382  and  _383
REMARK  151  A    between atoms: _382  and  _385
REMARK  152  A    between atoms: _385  and  _386
REMARK  153  A    between atoms: _391  and  _393
REMARK  154  A    between atoms: _393  and  _394
REMARK  155  A    between atoms: _393  and  _396
REMARK  156  A    between atoms: _396  and  _397
REMARK  157  A    between atoms: _400  and  _402
REMARK  158  A    between atoms: _402  and  _403
REMARK  159  A    between atoms: _402  and  _405
REMARK  160  A    between atoms: _405  and  _406
REMARK  161  A    between atoms: _412  and  _414
REMARK  162  A    between atoms: _414  and  _415
REMARK  163  A    between atoms: _414  and  _417
REMARK  164  A    between atoms: _417  and  _418
REMARK  165  A    between atoms: _421  and  _423
REMARK  166  A    between atoms: _423  and  _424
REMARK  167  A    between atoms: _423  and  _426
REMARK  168  A    between atoms: _426  and  _427
REMARK  169  A    between atoms: _429  and  _431
REMARK  170  A    between atoms: _431  and  _432
REMARK  171  A    between atoms: _431  and  _434
REMARK  172  A    between atoms: _434  and  _435
REMARK  173  A    between atoms: _438  and  _440
REMARK  174  A    between atoms: _440  and  _441
REMARK  175  A    between atoms: _440  and  _443
REMARK  176  A    between atoms: _443  and  _444
REMARK  177  A    between atoms: _450  and  _452
REMARK  178  A    between atoms: _452  and  _453
REMARK  179  A    between atoms: _452  and  _455
REMARK  180  A    between atoms: _455  and  _456
REMARK  181  A    between atoms: _456  and  _457
REMARK  182  A    between atoms: _457  and  _458
REMARK  183  A    between atoms: _467  and  _469
REMARK  184  A    between atoms: _469  and  _470
REMARK  185  A    between atoms: _469  and  _472
REMARK  186  A    between atoms: _472  and  _473
REMARK  187  A    between atoms: _479  and  _481
REMARK  188  A    between atoms: _481  and  _482
REMARK  189  A    between atoms: _481  and  _484
REMARK  190  A    between atoms: _484  and  _485
REMARK  191  A    between atoms: _487  and  _489
REMARK  192  A    between atoms: _489  and  _490
REMARK  193  A    between atoms: _489  and  _492
REMARK  194  A    between atoms: _492  and  _493
REMARK  195  A    between atoms: _498  and  _500
REMARK  196  A    between atoms: _500  and  _501
REMARK  197  A    between atoms: _500  and  _503
REMARK  198  A    between atoms: _503  and  _504
REMARK  199  A    between atoms: _504  and  _505
REMARK  200  A    between atoms: _508  and  _510
REMARK  201  A    between atoms: _510  and  _511
REMARK  202  A    between atoms: _513  and  _515
REMARK  203  A    between atoms: _515  and  _516
REMARK  204  A    between atoms: _515  and  _518
REMARK  205  A    between atoms: _518  and  _519
REMARK  206  A    between atoms: _521  and  _523
REMARK  207  A    between atoms: _523  and  _524
REMARK  208  A    between atoms: _523  and  _526
REMARK  209  A    between atoms: _526  and  _527
REMARK  210  A    between atoms: _533  and  _535
REMARK  211  A    between atoms: _535  and  _536
REMARK  212  A    between atoms: _535  and  _538
REMARK  213  A    between atoms: _538  and  _539
REMARK  214  A    between atoms: _545  and  _547
REMARK  215  A    between atoms: _547  and  _548
REMARK  216  A    between atoms: _547  and  _550
REMARK  217  A    between atoms: _550  and  _551
REMARK  218  A    between atoms: _554  and  _556
REMARK  219  A    between atoms: _556  and  _557
REMARK  220  A    between atoms: _556  and  _559
REMARK  221  A    between atoms: _559  and  _560
REMARK  222  A    between atoms: _563  and  _565
REMARK  223  A    between atoms: _565  and  _566
REMARK  224  A    between atoms: _565  and  _568
REMARK  225  A    between atoms: _568  and  _569
REMARK  226  A    between atoms: _574  and  _575
REMARK  227  A    between atoms: _577  and  _579
REMARK  228  A    between atoms: _579  and  _580
REMARK  229  A    between atoms: _582  and  _584
REMARK  230  A    between atoms: _584  and  _585
REMARK  231  A    between atoms: _588  and  _590
REMARK  232  A    between atoms: _590  and  _591
REMARK  233  A    between atoms: _590  and  _593
REMARK  234  A    between atoms: _593  and  _594
REMARK  235  A    between atoms: _597  and  _599
REMARK  236  A    between atoms: _599  and  _600
REMARK  237  A    between atoms: _599  and  _602
REMARK  238  A    between atoms: _602  and  _603
REMARK  239  A    between atoms: _605  and  _607
REMARK  240  A    between atoms: _607  and  _608
REMARK  241  A    between atoms: _607  and  _610
REMARK  242  A    between atoms: _613  and  _615
REMARK  243  A    between atoms: _615  and  _616
REMARK  244  A    between atoms: _615  and  _618
REMARK  245  A    between atoms: _618  and  _619
REMARK  246  A    between atoms: _624  and  _626
REMARK  247  A    between atoms: _626  and  _627
REMARK  248  A    between atoms: _626  and  _629
REMARK  249  A    between atoms: _629  and  _630
REMARK  250  A    between atoms: _640  and  _642
REMARK  251  A    between atoms: _642  and  _643
REMARK  252  A    between atoms: _642  and  _645
REMARK  253  A    between atoms: _645  and  _646
REMARK  254  A    between atoms: _646  and  _647
REMARK  255  A    between atoms: _649  and  _651
REMARK  256  A    between atoms: _651  and  _652
REMARK  257  A    between atoms: _651  and  _654
REMARK  258  A    between atoms: _654  and  _655
REMARK  259  A    between atoms: _658  and  _660
REMARK  260  A    between atoms: _660  and  _661
REMARK  261  A    between atoms: _660  and  _663
REMARK  262  A    between atoms: _663  and  _664
REMARK  263  A    between atoms: _669  and  _671
REMARK  264  A    between atoms: _671  and  _672
REMARK  265  A    between atoms: _674  and  _676
REMARK  266  A    between atoms: _676  and  _677
REMARK  267  A    between atoms: _676  and  _679
REMARK  268  A    between atoms: _679  and  _680
REMARK  269  A    between atoms: _685  and  _686
REMARK  270  A    between atoms: _688  and  _690
REMARK  271  A    between atoms: _690  and  _691
REMARK  272  A    between atoms: _690  and  _693
REMARK  273  A    between atoms: _693  and  _694
REMARK  274  A    between atoms: _694  and  _695
REMARK  275  A    between atoms: _698  and  _700
REMARK  276  A    between atoms: _700  and  _701
REMARK  277  A    between atoms: _700  and  _703
REMARK  278  A    between atoms: _703  and  _704
REMARK                            x       y       z     vdW  Elec       q    Type
REMARK                         _______ _______ _______ _____ _____    ______ ____
ROOT
ATOM      1  CG  TYR A   1      -4.447  63.059  53.958  0.00  0.00    -0.020 A 
ATOM      2  CD2 TYR A   1      -4.133  62.107  54.931  0.00  0.00    -0.001 A 
ATOM      3  CE2 TYR A   1      -2.958  62.224  55.726  0.00  0.00    +0.036 A 
ATOM      4  CZ  TYR A   1      -2.098  63.300  55.536  0.00  0.00    +0.134 A 
ATOM      5  CE1 TYR A   1      -2.387  64.258  54.560  0.00  0.00    +0.036 A 
ATOM      6  CD1 TYR A   1      -3.569  64.130  53.775  0.00  0.00    -0.001 A 
ENDROOT
BRANCH   4   7
ATOM      7  OH  TYR A   1      -0.970  63.431  56.360  0.00  0.00    -0.506 OA
ATOM      8  HH  TYR A   1      -0.465  64.241  56.099  0.00  0.00    +0.292 HD
ENDBRANCH   4   7
BRANCH   1   9
ATOM      9  CB  TYR A   1      -5.726  62.945  53.131  0.00  0.00    +0.051 C 
BRANCH   9  10
ATOM     10  CA  TYR A   1      -6.924  63.792  53.628  0.00  0.00    +0.137 C 
BRANCH  10  11
ATOM     11  N   TYR A   1      -6.617  65.230  53.671  0.00  0.00    -0.239 NA
ATOM     12  H   TYR A   1      -6.468  65.676  54.598  0.00  0.00    +0.142 HD
ENDBRANCH  10  11
BRANCH  10  13
ATOM     13  C   TYR A   1      -7.301  63.365  55.037  0.00  0.00    +0.224 C 
ATOM     14  O   TYR A   1      -6.827  63.959  56.038  0.00  0.00    -0.287 OA
ENDBRANCH  10  13
ENDBRANCH   9  10
ENDBRANCH   1   9
TORSDOF 5
REMARK  Name = ../refined-set-2016/1h23/1h23_pocket.pdb
REMARK  278 active torsions:
REMARK  status: ('A' for Active; 'I' for Inactive)
REMARK    1  A    between atoms: _1  and  _3
REMARK    2  A    between atoms: _3  and  _4
REMARK    3  A    between atoms: _3  and  _6
REMARK    4  A    between atoms: _6  and  _7
REMARK    5  A    between atoms: _7  and  _8
REMARK    6  A    between atoms: _13  and  _15
REMARK    7  A    between atoms: _15  and  _16
REMARK    8  A    between atoms: _15  and  _18
REMARK    9  A    between atoms: _18  and  _19
REMARK   10  A    between atoms: _24  and  _25
REMARK   11  A    between atoms: _27  and  _29
REMARK   12  A    between atoms: _29  and  _30
REMARK   13  A    between atoms: _29  and  _32
REMARK   14  A    between atoms: _35  and  _37
REMARK   15  A    between atoms: _37  and  _38
REMARK   16  A    between atoms: _37  and  _40
REMARK   17  A    between atoms: _40  and  _41
REMARK   18  A    between atoms: _44  and  _46
REMARK   19  A    between atoms: _46  and  _47
REMARK   20  A    between atoms: _46  and  _49
REMARK   21  A    between atoms: _49  and  _50
REMARK   22  A    between atoms: _50  and  _51
REMARK   23  A    between atoms: _54  and  _56
REMARK   24  A    between atoms: _56  and  _57
REMARK   25  A    between atoms: _56  and  _59
REMARK   26  A    between atoms: _59  and  _60
REMARK   27  A    between atoms: _60  and  _61
REMARK   28  A    between atoms: _66  and  _68
REMARK   29  A    between atoms: _68  and  _69
REMARK   30  A    between atoms: _68  and  _71
REMARK   31  A    between atoms: _71  and  _72
REMARK   32  A    between atoms: _78  and  _80
REMARK   33  A    between atoms: _80  and  _81
REMARK   34  A    between atoms: _83  and  _85
REMARK   35  A    between atoms: _85  and  _86
REMARK   36  A    between atoms: _85  and  _88
REMARK   37  A    between atoms: _88  and  _89
REMARK   38  A    between atoms: _91  and  _93
REMARK   39  A    between atoms: _93  and  _94
REMARK   40  A    between atoms: _93  and  _96
REMARK   41  A    between atoms: _96  and  _97
REMARK   42  A    between atoms: _97  and  _98
REMARK   43  A    between atoms: _100  and  _102
REMARK   44  A    between atoms: _102  and  _103
REMARK   45  A    between atoms: _102  and  _105
REMARK   46  A    between atoms: _105  and  _106
REMARK   47  A    between atoms: _116  and  _118
REMARK   48  A    between atoms: _118  and  _119
REMARK   49  A    between atoms: _118  and  _121
REMARK   50  A    between atoms: _121  and  _122
REMARK   51  A    between atoms: _128  and  _129
REMARK   52  A    between atoms: _134  and  _136
REMARK   53  A    between atoms: _136  and  _137
REMARK   54  A    between atoms: _136  and  _139
REMARK   55  A    between atoms: _139  and  _140
REMARK   56  A    between atoms: _150  and  _152
REMARK   57  A    between atoms: _152  and  _153
REMARK   58  A    between atoms: _152  and  _155
REMARK   59  A    between atoms: _155  and  _156
REMARK   60  A    between atoms: _159  and  _161
REMARK   61  A    between atoms: _161  and  _162
REMARK   62  A    between atoms: _161  and  _164
REMARK   63  A    between atoms: _164  and  _165
REMARK   64  A    between atoms: _170  and  _171
REMARK   65  A    between atoms: _173  and  _175
REMARK   66  A    between atoms: _175  and  _176
REMARK   67  A    between atoms: _178  and  _180
REMARK   68  A    between atoms: _180  and  _181
REMARK   69  A    between atoms: _183  and  _185
REMARK   70  A    between atoms: _185  and  _186
REMARK   71  A    between atoms: _188  and  _190
REMARK   72  A    between atoms: _190  and  _191
REMARK   73  A    between atoms: _190  and  _193
REMARK   74  A    between atoms: _193  and  _194
REMARK   75  A    between atoms: _200  and  _202
REMARK   76  A    between atoms: _202  and  _203
REMARK   77  A    between atoms: _202  and  _205
REMARK   78  A    between atoms: _205  and  _206
REMARK   79  A    between atoms: _211  and  _212
REMARK   80  A    between atoms: _214  and  _216
REMARK   81  A    between atoms: _216  and  _217
REMARK   82  A    between atoms: _216  and  _219
REMARK   83  A    between atoms: _219  and  _220
REMARK   84  A    between atoms: _222  and  _224
REMARK   85  A    between atoms: _224  and  _225
REMARK   86  A    between atoms: _227  and  _229
REMARK   87  A    between atoms: _229  and  _230
REMARK   88  A    between atoms: _229  and  _232
REMARK   89  A    between atoms: _232  and  _233
REMARK   90  A    between atoms: _235  and  _237
REMARK   91  A    between atoms: _237  and  _238
REMARK   92  A    between atoms: _237  and  _240
REMARK   93  A    between atoms: _240  and  _241
REMARK   94  A    between atoms: _243  and  _245
REMARK   95  A    between atoms: _245  and  _246
REMARK   96  A    between atoms: _245  and  _248
REMARK   97  A    between atoms: _248  and  _249
REMARK   98  A    between atoms: _252  and  _254
REMARK   99  A    between atoms: _254  and  _255
REMARK  100  A    between atoms: _254  and  _257
REMARK  101  A    between atoms: _257  and  _258
REMARK  102  A    between atoms: _261  and  _263
REMARK  103  A    between atoms: _263  and  _264
REMARK  104  A    between atoms: _263  and  _266
REMARK  105  A    between atoms: _269  and  _271
REMARK  106  A    between atoms: _271  and  _272
REMARK  107  A    between atoms: _271  and  _274
REMARK  108  A    between atoms: _274  and  _275
REMARK  109  A    between atoms: _280  and  _281
REMARK  110  A    between atoms: _283  and  _285
REMARK  111  A    between atoms: _285  and  _286
REMARK  112  A    between atoms: _285  and  _288
REMARK  113  A    between atoms: _288  and  _289
REMARK  114  A    between atoms: _294  and  _295
REMARK  115  A    between atoms: _297  and  _299
REMARK  116  A    between atoms: _299  and  _300
REMARK  117  A    between atoms: _299  and  _302
REMARK  118  A    between atoms: _305  and  _307
REMARK  119  A    between atoms: _307  and  _308
REMARK  120  A    between atoms: _307  and  _310
REMARK  121  A    between atoms: _310  and  _311
REMARK  122  A    between atoms: _311  and  _312
REMARK  123  A    between atoms: _315  and  _317
REMARK  124  A    between atoms: _317  and  _318
REMARK  125  A    between atoms: _317  and  _320
REMARK  126  A    between atoms: _320  and  _321
REMARK  127  A    between atoms: _323  and  _325
REMARK  128  A    between atoms: _325  and  _326
REMARK  129  A    between atoms: _329  and  _331
REMARK  130  A    between atoms: _331  and  _332
REMARK  131  A    between atoms: _334  and  _336
REMARK  132  A    between atoms: _336  and  _337
REMARK  133  A    between atoms: _336  and  _339
REMARK  134  A    between atoms: _339  and  _340
REMARK  135  A    between atoms: _340  and  _341
REMARK  136  A    between atoms: _346  and  _348
REMARK  137  A    between atoms: _348  and  _349
REMARK  138  A    between atoms: _348  and  _351
REMARK  139  A    between atoms: _351  and  _352
REMARK  140  A    between atoms: _354  and  _356
REMARK  141  A    between atoms: _356  and  _357
REMARK  142  A    between atoms: _356  and  _359
REMARK  143  A    between atoms: _359  and  _360
REMARK  144  A    between atoms: _360  and  _361
REMARK  145  A    between atoms: _364  and  _366
REMARK  146  A    between atoms: _366  and  _367
REMARK  147  A    between atoms: _366  and  _369
REMARK  148  A    between atoms: _369  and  _370
REMARK  149  A    between atoms: _380  and  _382
REMARK  150  A    between atoms: _382  and  _383
REMARK  151  A    between atoms: _382  and  _385
REMARK  152  A    between atoms: _385  and  _386
REMARK  153  A    between atoms: _391  and  _393
REMARK  154  A    between atoms: _393  and  _394
REMARK  155  A    between atoms: _393  and  _396
REMARK  156  A    between atoms: _396  and  _397
REMARK  157  A    between atoms: _400  and  _402
REMARK  158  A    between atoms: _402  and  _403
REMARK  159  A    between atoms: _402  and  _405
REMARK  160  A    between atoms: _405  and  _406
REMARK  161  A    between atoms: _412  and  _414
REMARK  162  A    between atoms: _414  and  _415
REMARK  163  A    between atoms: _414  and  _417
REMARK  164  A    between atoms: _417  and  _418
REMARK  165  A    between atoms: _421  and  _423
REMARK  166  A    between atoms: _423  and  _424
REMARK  167  A    between atoms: _423  and  _426
REMARK  168  A    between atoms: _426  and  _427
REMARK  169  A    between atoms: _429  and  _431
REMARK  170  A    between atoms: _431  and  _432
REMARK  171  A    between atoms: _431  and  _434
REMARK  172  A    between atoms: _434  and  _435
REMARK  173  A    between atoms: _438  and  _440
REMARK  174  A    between atoms: _440  and  _441
REMARK  175  A    between atoms: _440  and  _443
REMARK  176  A    between atoms: _443  and  _444
REMARK  177  A    between atoms: _450  and  _452
REMARK  178  A    between atoms: _452  and  _453
REMARK  179  A    between atoms: _452  and  _455
REMARK  180  A    between atoms: _455  and  _456
REMARK  181  A    between atoms: _456  and  _457
REMARK  182  A    between atoms: _457  and  _458
REMARK  183  A    between atoms: _467  and  _469
REMARK  184  A    between atoms: _469  and  _470
REMARK  185  A    between atoms: _469  and  _472
REMARK  186  A    between atoms: _472  and  _473
REMARK  187  A    between atoms: _479  and  _481
REMARK  188  A    between atoms: _481  and  _482
REMARK  189  A    between atoms: _481  and  _484
REMARK  190  A    between atoms: _484  and  _485
REMARK  191  A    between atoms: _487  and  _489
REMARK  192  A    between atoms: _489  and  _490
REMARK  193  A    between atoms: _489  and  _492
REMARK  194  A    between atoms: _492  and  _493
REMARK  195  A    between atoms: _498  and  _500
REMARK  196  A    between atoms: _500  and  _501
REMARK  197  A    between atoms: _500  and  _503
REMARK  198  A    between atoms: _503  and  _504
REMARK  199  A    between atoms: _504  and  _505
REMARK  200  A    between atoms: _508  and  _510
REMARK  201  A    between atoms: _510  and  _511
REMARK  202  A    between atoms: _513  and  _515
REMARK  203  A    between atoms: _515  and  _516
REMARK  204  A    between atoms: _515  and  _518
REMARK  205  A    between atoms: _518  and  _519
REMARK  206  A    between atoms: _521  and  _523
REMARK  207  A    between atoms: _523  and  _524
REMARK  208  A    between atoms: _523  and  _526
REMARK  209  A    between atoms: _526  and  _527
REMARK  210  A    between atoms: _533  and  _535
REMARK  211  A    between atoms: _535  and  _536
REMARK  212  A    between atoms: _535  and  _538
REMARK  213  A    between atoms: _538  and  _539
REMARK  214  A    between atoms: _545  and  _547
REMARK  215  A    between atoms: _547  and  _548
REMARK  216  A    between atoms: _547  and  _550
REMARK  217  A    between atoms: _550  and  _551
REMARK  218  A    between atoms: _554  and  _556
REMARK  219  A    between atoms: _556  and  _557
REMARK  220  A    between atoms: _556  and  _559
REMARK  221  A    between atoms: _559  and  _560
REMARK  222  A    between atoms: _563  and  _565
REMARK  223  A    between atoms: _565  and  _566
REMARK  224  A    between atoms: _565  and  _568
REMARK  225  A    between atoms: _568  and  _569
REMARK  226  A    between atoms: _574  and  _575
REMARK  227  A    between atoms: _577  and  _579
REMARK  228  A    between atoms: _579  and  _580
REMARK  229  A    between atoms: _582  and  _584
REMARK  230  A    between atoms: _584  and  _585
REMARK  231  A    between atoms: _588  and  _590
REMARK  232  A    between atoms: _590  and  _591
REMARK  233  A    between atoms: _590  and  _593
REMARK  234  A    between atoms: _593  and  _594
REMARK  235  A    between atoms: _597  and  _599
REMARK  236  A    between atoms: _599  and  _600
REMARK  237  A    between atoms: _599  and  _602
REMARK  238  A    between atoms: _602  and  _603
REMARK  239  A    between atoms: _605  and  _607
REMARK  240  A    between atoms: _607  and  _608
REMARK  241  A    between atoms: _607  and  _610
REMARK  242  A    between atoms: _613  and  _615
REMARK  243  A    between atoms: _615  and  _616
REMARK  244  A    between atoms: _615  and  _618
REMARK  245  A    between atoms: _618  and  _619
REMARK  246  A    between atoms: _624  and  _626
REMARK  247  A    between atoms: _626  and  _627
REMARK  248  A    between atoms: _626  and  _629
REMARK  249  A    between atoms: _629  and  _630
REMARK  250  A    between atoms: _640  and  _642
REMARK  251  A    between atoms: _642  and  _643
REMARK  252  A    between atoms: _642  and  _645
REMARK  253  A    between atoms: _645  and  _646
REMARK  254  A    between atoms: _646  and  _647
REMARK  255  A    between atoms: _649  and  _651
REMARK  256  A    between atoms: _651  and  _652
REMARK  257  A    between atoms: _651  and  _654
REMARK  258  A    between atoms: _654  and  _655
REMARK  259  A    between atoms: _658  and  _660
REMARK  260  A    between atoms: _660  and  _661
REMARK  261  A    between atoms: _660  and  _663
REMARK  262  A    between atoms: _663  and  _664
REMARK  263  A    between atoms: _669  and  _671
REMARK  264  A    between atoms: _671  and  _672
REMARK  265  A    between atoms: _674  and  _676
REMARK  266  A    between atoms: _676  and  _677
REMARK  267  A    between atoms: _676  and  _679
REMARK  268  A    between atoms: _679  and  _680
REMARK  269  A    between atoms: _685  and  _686
REMARK  270  A    between atoms: _688  and  _690
REMARK  271  A    between atoms: _690  and  _691
REMARK  272  A    between atoms: _690  and  _693
REMARK  273  A    between atoms: _693  and  _694
REMARK  274  A    between atoms: _694  and  _695
REMARK  275  A    between atoms: _698  and  _700
REMARK  276  A    between atoms: _700  and  _701
REMARK  277  A    between atoms: _700  and  _703
REMARK  278  A    between atoms: _703  and  _704
REMARK                            x       y       z     vdW  Elec       q    Type
REMARK                         _______ _______ _______ _____ _____    ______ ____
ROOT
ATOM      1  CA  VAL A   1      -6.249  61.007  59.343  0.00  0.00    +0.133 C 
ENDROOT
BRANCH   1   2
ATOM      2  CB  VAL A   1      -5.474  62.178  60.012  0.00  0.00    +0.023 C 
ATOM      3  CG2 VAL A   1      -6.445  63.149  60.716  0.00  0.00    +0.002 C 
ATOM      4  CG1 VAL A   1      -4.668  62.935  58.938  0.00  0.00    +0.002 C 
ENDBRANCH   1   2
BRANCH   1   5
ATOM      5  N   VAL A   1      -7.301  61.514  58.478  0.00  0.00    -0.239 NA
ATOM      6  H   VAL A   1      -8.042  62.112  58.896  0.00  0.00    +0.142 HD
ENDBRANCH   1   5
BRANCH   1   7
ATOM      7  C   VAL A   1      -6.907  60.108  60.419  0.00  0.00    +0.224 C 
ATOM      8  O   VAL A   1      -8.146  59.995  60.486  0.00  0.00    -0.287 OA
ENDBRANCH   1   7
TORSDOF 3
REMARK  Name = ../refined-set-2016/1h23/1h23_pocket.pdb
REMARK  278 active torsions:
REMARK  status: ('A' for Active; 'I' for Inactive)
REMARK    1  A    between atoms: _1  and  _3
REMARK    2  A    between atoms: _3  and  _4
REMARK    3  A    between atoms: _3  and  _6
REMARK    4  A    between atoms: _6  and  _7
REMARK    5  A    between atoms: _7  and  _8
REMARK    6  A    between atoms: _13  and  _15
REMARK    7  A    between atoms: _15  and  _16
REMARK    8  A    between atoms: _15  and  _18
REMARK    9  A    between atoms: _18  and  _19
REMARK   10  A    between atoms: _24  and  _25
REMARK   11  A    between atoms: _27  and  _29
REMARK   12  A    between atoms: _29  and  _30
REMARK   13  A    between atoms: _29  and  _32
REMARK   14  A    between atoms: _35  and  _37
REMARK   15  A    between atoms: _37  and  _38
REMARK   16  A    between atoms: _37  and  _40
REMARK   17  A    between atoms: _40  and  _41
REMARK   18  A    between atoms: _44  and  _46
REMARK   19  A    between atoms: _46  and  _47
REMARK   20  A    between atoms: _46  and  _49
REMARK   21  A    between atoms: _49  and  _50
REMARK   22  A    between atoms: _50  and  _51
REMARK   23  A    between atoms: _54  and  _56
REMARK   24  A    between atoms: _56  and  _57
REMARK   25  A    between atoms: _56  and  _59
REMARK   26  A    between atoms: _59  and  _60
REMARK   27  A    between atoms: _60  and  _61
REMARK   28  A    between atoms: _66  and  _68
REMARK   29  A    between atoms: _68  and  _69
REMARK   30  A    between atoms: _68  and  _71
REMARK   31  A    between atoms: _71  and  _72
REMARK   32  A    between atoms: _78  and  _80
REMARK   33  A    between atoms: _80  and  _81
REMARK   34  A    between atoms: _83  and  _85
REMARK   35  A    between atoms: _85  and  _86
REMARK   36  A    between atoms: _85  and  _88
REMARK   37  A    between atoms: _88  and  _89
REMARK   38  A    between atoms: _91  and  _93
REMARK   39  A    between atoms: _93  and  _94
REMARK   40  A    between atoms: _93  and  _96
REMARK   41  A    between atoms: _96  and  _97
REMARK   42  A    between atoms: _97  and  _98
REMARK   43  A    between atoms: _100  and  _102
REMARK   44  A    between atoms: _102  and  _103
REMARK   45  A    between atoms: _102  and  _105
REMARK   46  A    between atoms: _105  and  _106
REMARK   47  A    between atoms: _116  and  _118
REMARK   48  A    between atoms: _118  and  _119
REMARK   49  A    between atoms: _118  and  _121
REMARK   50  A    between atoms: _121  and  _122
REMARK   51  A    between atoms: _128  and  _129
REMARK   52  A    between atoms: _134  and  _136
REMARK   53  A    between atoms: _136  and  _137
REMARK   54  A    between atoms: _136  and  _139
REMARK   55  A    between atoms: _139  and  _140
REMARK   56  A    between atoms: _150  and  _152
REMARK   57  A    between atoms: _152  and  _153
REMARK   58  A    between atoms: _152  and  _155
REMARK   59  A    between atoms: _155  and  _156
REMARK   60  A    between atoms: _159  and  _161
REMARK   61  A    between atoms: _161  and  _162
REMARK   62  A    between atoms: _161  and  _164
REMARK   63  A    between atoms: _164  and  _165
REMARK   64  A    between atoms: _170  and  _171
REMARK   65  A    between atoms: _173  and  _175
REMARK   66  A    between atoms: _175  and  _176
REMARK   67  A    between atoms: _178  and  _180
REMARK   68  A    between atoms: _180  and  _181
REMARK   69  A    between atoms: _183  and  _185
REMARK   70  A    between atoms: _185  and  _186
REMARK   71  A    between atoms: _188  and  _190
REMARK   72  A    between atoms: _190  and  _191
REMARK   73  A    between atoms: _190  and  _193
REMARK   74  A    between atoms: _193  and  _194
REMARK   75  A    between atoms: _200  and  _202
REMARK   76  A    between atoms: _202  and  _203
REMARK   77  A    between atoms: _202  and  _205
REMARK   78  A    between atoms: _205  and  _206
REMARK   79  A    between atoms: _211  and  _212
REMARK   80  A    between atoms: _214  and  _216
REMARK   81  A    between atoms: _216  and  _217
REMARK   82  A    between atoms: _216  and  _219
REMARK   83  A    between atoms: _219  and  _220
REMARK   84  A    between atoms: _222  and  _224
REMARK   85  A    between atoms: _224  and  _225
REMARK   86  A    between atoms: _227  and  _229
REMARK   87  A    between atoms: _229  and  _230
REMARK   88  A    between atoms: _229  and  _232
REMARK   89  A    between atoms: _232  and  _233
REMARK   90  A    between atoms: _235  and  _237
REMARK   91  A    between atoms: _237  and  _238
REMARK   92  A    between atoms: _237  and  _240
REMARK   93  A    between atoms: _240  and  _241
REMARK   94  A    between atoms: _243  and  _245
REMARK   95  A    between atoms: _245  and  _246
REMARK   96  A    between atoms: _245  and  _248
REMARK   97  A    between atoms: _248  and  _249
REMARK   98  A    between atoms: _252  and  _254
REMARK   99  A    between atoms: _254  and  _255
REMARK  100  A    between atoms: _254  and  _257
REMARK  101  A    between atoms: _257  and  _258
REMARK  102  A    between atoms: _261  and  _263
REMARK  103  A    between atoms: _263  and  _264
REMARK  104  A    between atoms: _263  and  _266
REMARK  105  A    between atoms: _269  and  _271
REMARK  106  A    between atoms: _271  and  _272
REMARK  107  A    between atoms: _271  and  _274
REMARK  108  A    between atoms: _274  and  _275
REMARK  109  A    between atoms: _280  and  _281
REMARK  110  A    between atoms: _283  and  _285
REMARK  111  A    between atoms: _285  and  _286
REMARK  112  A    between atoms: _285  and  _288
REMARK  113  A    between atoms: _288  and  _289
REMARK  114  A    between atoms: _294  and  _295
REMARK  115  A    between atoms: _297  and  _299
REMARK  116  A    between atoms: _299  and  _300
REMARK  117  A    between atoms: _299  and  _302
REMARK  118  A    between atoms: _305  and  _307
REMARK  119  A    between atoms: _307  and  _308
REMARK  120  A    between atoms: _307  and  _310
REMARK  121  A    between atoms: _310  and  _311
REMARK  122  A    between atoms: _311  and  _312
REMARK  123  A    between atoms: _315  and  _317
REMARK  124  A    between atoms: _317  and  _318
REMARK  125  A    between atoms: _317  and  _320
REMARK  126  A    between atoms: _320  and  _321
REMARK  127  A    between atoms: _323  and  _325
REMARK  128  A    between atoms: _325  and  _326
REMARK  129  A    between atoms: _329  and  _331
REMARK  130  A    between atoms: _331  and  _332
REMARK  131  A    between atoms: _334  and  _336
REMARK  132  A    between atoms: _336  and  _337
REMARK  133  A    between atoms: _336  and  _339
REMARK  134  A    between atoms: _339  and  _340
REMARK  135  A    between atoms: _340  and  _341
REMARK  136  A    between atoms: _346  and  _348
REMARK  137  A    between atoms: _348  and  _349
REMARK  138  A    between atoms: _348  and  _351
REMARK  139  A    between atoms: _351  and  _352
REMARK  140  A    between atoms: _354  and  _356
REMARK  141  A    between atoms: _356  and  _357
REMARK  142  A    between atoms: _356  and  _359
REMARK  143  A    between atoms: _359  and  _360
REMARK  144  A    between atoms: _360  and  _361
REMARK  145  A    between atoms: _364  and  _366
REMARK  146  A    between atoms: _366  and  _367
REMARK  147  A    between atoms: _366  and  _369
REMARK  148  A    between atoms: _369  and  _370
REMARK  149  A    between atoms: _380  and  _382
REMARK  150  A    between atoms: _382  and  _383
REMARK  151  A    between atoms: _382  and  _385
REMARK  152  A    between atoms: _385  and  _386
REMARK  153  A    between atoms: _391  and  _393
REMARK  154  A    between atoms: _393  and  _394
REMARK  155  A    between atoms: _393  and  _396
REMARK  156  A    between atoms: _396  and  _397
REMARK  157  A    between atoms: _400  and  _402
REMARK  158  A    between atoms: _402  and  _403
REMARK  159  A    between atoms: _402  and  _405
REMARK  160  A    between atoms: _405  and  _406
REMARK  161  A    between atoms: _412  and  _414
REMARK  162  A    between atoms: _414  and  _415
REMARK  163  A    between atoms: _414  and  _417
REMARK  164  A    between atoms: _417  and  _418
REMARK  165  A    between atoms: _421  and  _423
REMARK  166  A    between atoms: _423  and  _424
REMARK  167  A    between atoms: _423  and  _426
REMARK  168  A    between atoms: _426  and  _427
REMARK  169  A    between atoms: _429  and  _431
REMARK  170  A    between atoms: _431  and  _432
REMARK  171  A    between atoms: _431  and  _434
REMARK  172  A    between atoms: _434  and  _435
REMARK  173  A    between atoms: _438  and  _440
REMARK  174  A    between atoms: _440  and  _441
REMARK  175  A    between atoms: _440  and  _443
REMARK  176  A    between atoms: _443  and  _444
REMARK  177  A    between atoms: _450  and  _452
REMARK  178  A    between atoms: _452  and  _453
REMARK  179  A    between atoms: _452  and  _455
REMARK  180  A    between atoms: _455  and  _456
REMARK  181  A    between atoms: _456  and  _457
REMARK  182  A    between atoms: _457  and  _458
REMARK  183  A    between atoms: _467  and  _469
REMARK  184  A    between atoms: _469  and  _470
REMARK  185  A    between atoms: _469  and  _472
REMARK  186  A    between atoms: _472  and  _473
REMARK  187  A    between atoms: _479  and  _481
REMARK  188  A    between atoms: _481  and  _482
REMARK  189  A    between atoms: _481  and  _484
REMARK  190  A    between atoms: _484  and  _485
REMARK  191  A    between atoms: _487  and  _489
REMARK  192  A    between atoms: _489  and  _490
REMARK  193  A    between atoms: _489  and  _492
REMARK  194  A    between atoms: _492  and  _493
REMARK  195  A    between atoms: _498  and  _500
REMARK  196  A    between atoms: _500  and  _501
REMARK  197  A    between atoms: _500  and  _503
REMARK  198  A    between atoms: _503  and  _504
REMARK  199  A    between atoms: _504  and  _505
REMARK  200  A    between atoms: _508  and  _510
REMARK  201  A    between atoms: _510  and  _511
REMARK  202  A    between atoms: _513  and  _515
REMARK  203  A    between atoms: _515  and  _516
REMARK  204  A    between atoms: _515  and  _518
REMARK  205  A    between atoms: _518  and  _519
REMARK  206  A    between atoms: _521  and  _523
REMARK  207  A    between atoms: _523  and  _524
REMARK  208  A    between atoms: _523  and  _526
REMARK  209  A    between atoms: _526  and  _527
REMARK  210  A    between atoms: _533  and  _535
REMARK  211  A    between atoms: _535  and  _536
REMARK  212  A    between atoms: _535  and  _538
REMARK  213  A    between atoms: _538  and  _539
REMARK  214  A    between atoms: _545  and  _547
REMARK  215  A    between atoms: _547  and  _548
REMARK  216  A    between atoms: _547  and  _550
REMARK  217  A    between atoms: _550  and  _551
REMARK  218  A    between atoms: _554  and  _556
REMARK  219  A    between atoms: _556  and  _557
REMARK  220  A    between atoms: _556  and  _559
REMARK  221  A    between atoms: _559  and  _560
REMARK  222  A    between atoms: _563  and  _565
REMARK  223  A    between atoms: _565  and  _566
REMARK  224  A    between atoms: _565  and  _568
REMARK  225  A    between atoms: _568  and  _569
REMARK  226  A    between atoms: _574  and  _575
REMARK  227  A    between atoms: _577  and  _579
REMARK  228  A    between atoms: _579  and  _580
REMARK  229  A    between atoms: _582  and  _584
REMARK  230  A    between atoms: _584  and  _585
REMARK  231  A    between atoms: _588  and  _590
REMARK  232  A    between atoms: _590  and  _591
REMARK  233  A    between atoms: _590  and  _593
REMARK  234  A    between atoms: _593  and  _594
REMARK  235  A    between atoms: _597  and  _599
REMARK  236  A    between atoms: _599  and  _600
REMARK  237  A    between atoms: _599  and  _602
REMARK  238  A    between atoms: _602  and  _603
REMARK  239  A    between atoms: _605  and  _607
REMARK  240  A    between atoms: _607  and  _608
REMARK  241  A    between atoms: _607  and  _610
REMARK  242  A    between atoms: _613  and  _615
REMARK  243  A    between atoms: _615  and  _616
REMARK  244  A    between atoms: _615  and  _618
REMARK  245  A    between atoms: _618  and  _619
REMARK  246  A    between atoms: _624  and  _626
REMARK  247  A    between atoms: _626  and  _627
REMARK  248  A    between atoms: _626  and  _629
REMARK  249  A    between atoms: _629  and  _630
REMARK  250  A    between atoms: _640  and  _642
REMARK  251  A    between atoms: _642  and  _643
REMARK  252  A    between atoms: _642  and  _645
REMARK  253  A    between atoms: _645  and  _646
REMARK  254  A    between atoms: _646  and  _647
REMARK  255  A    between atoms: _649  and  _651
REMARK  256  A    between atoms: _651  and  _652
REMARK  257  A    between atoms: _651  and  _654
REMARK  258  A    between atoms: _654  and  _655
REMARK  259  A    between atoms: _658  and  _660
REMARK  260  A    between atoms: _660  and  _661
REMARK  261  A    between atoms: _660  and  _663
REMARK  262  A    between atoms: _663  and  _664
REMARK  263  A    between atoms: _669  and  _671
REMARK  264  A    between atoms: _671  and  _672
REMARK  265  A    between atoms: _674  and  _676
REMARK  266  A    between atoms: _676  and  _677
REMARK  267  A    between atoms: _676  and  _679
REMARK  268  A    between atoms: _679  and  _680
REMARK  269  A    between atoms: _685  and  _686
REMARK  270  A    between atoms: _688  and  _690
REMARK  271  A    between atoms: _690  and  _691
REMARK  272  A    between atoms: _690  and  _693
REMARK  273  A    between atoms: _693  and  _694
REMARK  274  A    between atoms: _694  and  _695
REMARK  275  A    between atoms: _698  and  _700
REMARK  276  A    between atoms: _700  and  _701
REMARK  277  A    between atoms: _700  and  _703
REMARK  278  A    between atoms: _703  and  _704
REMARK                            x       y       z     vdW  Elec       q    Type
REMARK                         _______ _______ _______ _____ _____    ______ ____
ROOT
ATOM      1  CA  SER A   2       6.896  64.135  58.580  0.00  0.00    +0.178 C 
ENDROOT
BRANCH   1   3
ATOM      2  C   GLU A   1       6.347  65.940  56.962  0.00  0.00    +0.238 C 
ATOM      3  N   SER A   2       7.248  65.226  57.644  0.00  0.00    -0.295 N 
ATOM      4  H   SER A   2       8.255  65.450  57.509  0.00  0.00    +0.150 HD
ATOM      5  O   GLU A   1       5.142  65.783  57.068  0.00  0.00    -0.274 OA
BRANCH   2   6
ATOM      6  CA  GLU A   1       6.897  67.018  56.041  0.00  0.00    +0.145 C 
BRANCH   6   7
ATOM      7  N   GLU A   1       5.996  67.228  54.924  0.00  0.00    -0.238 NA
ATOM      8  H   GLU A   1       5.023  67.544  55.113  0.00  0.00    +0.142 HD
ENDBRANCH   6   7
BRANCH   6   9
ATOM      9  CB  GLU A   1       7.104  68.340  56.814  0.00  0.00    +0.038 C 
BRANCH   9  10
ATOM     10  CG  GLU A   1       8.139  68.266  57.925  0.00  0.00    +0.116 C 
BRANCH  10  11
ATOM     11  CD  GLU A   1       7.517  67.925  59.281  0.00  0.00    +0.365 C 
ATOM     12  OE2 GLU A   1       8.251  67.767  60.287  0.00  0.00    -0.246 OA
ATOM     13  OE1 GLU A   1       6.275  67.815  59.353  0.00  0.00    -0.246 OA
ENDBRANCH  10  11
ENDBRANCH   9  10
ENDBRANCH   6   9
ENDBRANCH   2   6
ENDBRANCH   1   3
BRANCH   1  14
ATOM     14  C   SER A   2       5.999  63.095  57.859  0.00  0.00    +0.243 C 
ATOM     15  N   ALA A   3       4.793  62.811  58.338  0.00  0.00    -0.297 N 
ATOM     16  H   ALA A   3       4.466  63.261  59.217  0.00  0.00    +0.150 HD
ATOM     17  O   SER A   2       6.412  62.563  56.854  0.00  0.00    -0.273 OA
BRANCH  15  18
ATOM     18  CA  ALA A   3       3.911  61.855  57.626  0.00  0.00    +0.149 C 
ATOM     19  CB  ALA A   3       2.544  61.715  58.367  0.00  0.00    +0.031 C 
BRANCH  18  20
ATOM     20  C   ALA A   3       3.662  62.313  56.184  0.00  0.00    +0.241 C 
ATOM     21  N   GLY A   4       3.838  63.616  55.946  0.00  0.00    -0.296 N 
ATOM     22  H   GLY A   4       4.120  64.247  56.723  0.00  0.00    +0.150 HD
ATOM     23  O   ALA A   3       3.314  61.507  55.312  0.00  0.00    -0.273 OA
BRANCH  21  24
ATOM     24  CA  GLY A   4       3.640  64.163  54.610  0.00  0.00    +0.163 C 
BRANCH  24  25
ATOM     25  C   GLY A   4       4.823  63.806  53.723  0.00  0.00    +0.229 C 
ATOM     26  O   GLY A   4       4.680  63.645  52.486  0.00  0.00    -0.286 OA
ENDBRANCH  24  25
ENDBRANCH  21  24
ENDBRANCH  18  20
ENDBRANCH  15  18
ENDBRANCH   1  14
BRANCH   1  27
ATOM     27  CB  SER A   2       6.210  64.705  59.841  0.00  0.00    +0.166 C 
BRANCH  27  28
ATOM     28  OG  SER A   2       6.223  63.726  60.889  0.00  0.00    -0.380 OA
ATOM     29  H   SER A   2       5.737  62.917  60.590  0.00  0.00    +0.211 HD
ENDBRANCH  27  28
ENDBRANCH   1  27
TORSDOF 13
REMARK  Name = ../refined-set-2016/1h23/1h23_pocket.pdb
REMARK  278 active torsions:
REMARK  status: ('A' for Active; 'I' for Inactive)
REMARK    1  A    between atoms: _1  and  _3
REMARK    2  A    between atoms: _3  and  _4
REMARK    3  A    between atoms: _3  and  _6
REMARK    4  A    between atoms: _6  and  _7
REMARK    5  A    between atoms: _7  and  _8
REMARK    6  A    between atoms: _13  and  _15
REMARK    7  A    between atoms: _15  and  _16
REMARK    8  A    between atoms: _15  and  _18
REMARK    9  A    between atoms: _18  and  _19
REMARK   10  A    between atoms: _24  and  _25
REMARK   11  A    between atoms: _27  and  _29
REMARK   12  A    between atoms: _29  and  _30
REMARK   13  A    between atoms: _29  and  _32
REMARK   14  A    between atoms: _35  and  _37
REMARK   15  A    between atoms: _37  and  _38
REMARK   16  A    between atoms: _37  and  _40
REMARK   17  A    between atoms: _40  and  _41
REMARK   18  A    between atoms: _44  and  _46
REMARK   19  A    between atoms: _46  and  _47
REMARK   20  A    between atoms: _46  and  _49
REMARK   21  A    between atoms: _49  and  _50
REMARK   22  A    between atoms: _50  and  _51
REMARK   23  A    between atoms: _54  and  _56
REMARK   24  A    between atoms: _56  and  _57
REMARK   25  A    between atoms: _56  and  _59
REMARK   26  A    between atoms: _59  and  _60
REMARK   27  A    between atoms: _60  and  _61
REMARK   28  A    between atoms: _66  and  _68
REMARK   29  A    between atoms: _68  and  _69
REMARK   30  A    between atoms: _68  and  _71
REMARK   31  A    between atoms: _71  and  _72
REMARK   32  A    between atoms: _78  and  _80
REMARK   33  A    between atoms: _80  and  _81
REMARK   34  A    between atoms: _83  and  _85
REMARK   35  A    between atoms: _85  and  _86
REMARK   36  A    between atoms: _85  and  _88
REMARK   37  A    between atoms: _88  and  _89
REMARK   38  A    between atoms: _91  and  _93
REMARK   39  A    between atoms: _93  and  _94
REMARK   40  A    between atoms: _93  and  _96
REMARK   41  A    between atoms: _96  and  _97
REMARK   42  A    between atoms: _97  and  _98
REMARK   43  A    between atoms: _100  and  _102
REMARK   44  A    between atoms: _102  and  _103
REMARK   45  A    between atoms: _102  and  _105
REMARK   46  A    between atoms: _105  and  _106
REMARK   47  A    between atoms: _116  and  _118
REMARK   48  A    between atoms: _118  and  _119
REMARK   49  A    between atoms: _118  and  _121
REMARK   50  A    between atoms: _121  and  _122
REMARK   51  A    between atoms: _128  and  _129
REMARK   52  A    between atoms: _134  and  _136
REMARK   53  A    between atoms: _136  and  _137
REMARK   54  A    between atoms: _136  and  _139
REMARK   55  A    between atoms: _139  and  _140
REMARK   56  A    between atoms: _150  and  _152
REMARK   57  A    between atoms: _152  and  _153
REMARK   58  A    between atoms: _152  and  _155
REMARK   59  A    between atoms: _155  and  _156
REMARK   60  A    between atoms: _159  and  _161
REMARK   61  A    between atoms: _161  and  _162
REMARK   62  A    between atoms: _161  and  _164
REMARK   63  A    between atoms: _164  and  _165
REMARK   64  A    between atoms: _170  and  _171
REMARK   65  A    between atoms: _173  and  _175
REMARK   66  A    between atoms: _175  and  _176
REMARK   67  A    between atoms: _178  and  _180
REMARK   68  A    between atoms: _180  and  _181
REMARK   69  A    between atoms: _183  and  _185
REMARK   70  A    between atoms: _185  and  _186
REMARK   71  A    between atoms: _188  and  _190
REMARK   72  A    between atoms: _190  and  _191
REMARK   73  A    between atoms: _190  and  _193
REMARK   74  A    between atoms: _193  and  _194
REMARK   75  A    between atoms: _200  and  _202
REMARK   76  A    between atoms: _202  and  _203
REMARK   77  A    between atoms: _202  and  _205
REMARK   78  A    between atoms: _205  and  _206
REMARK   79  A    between atoms: _211  and  _212
REMARK   80  A    between atoms: _214  and  _216
REMARK   81  A    between atoms: _216  and  _217
REMARK   82  A    between atoms: _216  and  _219
REMARK   83  A    between atoms: _219  and  _220
REMARK   84  A    between atoms: _222  and  _224
REMARK   85  A    between atoms: _224  and  _225
REMARK   86  A    between atoms: _227  and  _229
REMARK   87  A    between atoms: _229  and  _230
REMARK   88  A    between atoms: _229  and  _232
REMARK   89  A    between atoms: _232  and  _233
REMARK   90  A    between atoms: _235  and  _237
REMARK   91  A    between atoms: _237  and  _238
REMARK   92  A    between atoms: _237  and  _240
REMARK   93  A    between atoms: _240  and  _241
REMARK   94  A    between atoms: _243  and  _245
REMARK   95  A    between atoms: _245  and  _246
REMARK   96  A    between atoms: _245  and  _248
REMARK   97  A    between atoms: _248  and  _249
REMARK   98  A    between atoms: _252  and  _254
REMARK   99  A    between atoms: _254  and  _255
REMARK  100  A    between atoms: _254  and  _257
REMARK  101  A    between atoms: _257  and  _258
REMARK  102  A    between atoms: _261  and  _263
REMARK  103  A    between atoms: _263  and  _264
REMARK  104  A    between atoms: _263  and  _266
REMARK  105  A    between atoms: _269  and  _271
REMARK  106  A    between atoms: _271  and  _272
REMARK  107  A    between atoms: _271  and  _274
REMARK  108  A    between atoms: _274  and  _275
REMARK  109  A    between atoms: _280  and  _281
REMARK  110  A    between atoms: _283  and  _285
REMARK  111  A    between atoms: _285  and  _286
REMARK  112  A    between atoms: _285  and  _288
REMARK  113  A    between atoms: _288  and  _289
REMARK  114  A    between atoms: _294  and  _295
REMARK  115  A    between atoms: _297  and  _299
REMARK  116  A    between atoms: _299  and  _300
REMARK  117  A    between atoms: _299  and  _302
REMARK  118  A    between atoms: _305  and  _307
REMARK  119  A    between atoms: _307  and  _308
REMARK  120  A    between atoms: _307  and  _310
REMARK  121  A    between atoms: _310  and  _311
REMARK  122  A    between atoms: _311  and  _312
REMARK  123  A    between atoms: _315  and  _317
REMARK  124  A    between atoms: _317  and  _318
REMARK  125  A    between atoms: _317  and  _320
REMARK  126  A    between atoms: _320  and  _321
REMARK  127  A    between atoms: _323  and  _325
REMARK  128  A    between atoms: _325  and  _326
REMARK  129  A    between atoms: _329  and  _331
REMARK  130  A    between atoms: _331  and  _332
REMARK  131  A    between atoms: _334  and  _336
REMARK  132  A    between atoms: _336  and  _337
REMARK  133  A    between atoms: _336  and  _339
REMARK  134  A    between atoms: _339  and  _340
REMARK  135  A    between atoms: _340  and  _341
REMARK  136  A    between atoms: _346  and  _348
REMARK  137  A    between atoms: _348  and  _349
REMARK  138  A    between atoms: _348  and  _351
REMARK  139  A    between atoms: _351  and  _352
REMARK  140  A    between atoms: _354  and  _356
REMARK  141  A    between atoms: _356  and  _357
REMARK  142  A    between atoms: _356  and  _359
REMARK  143  A    between atoms: _359  and  _360
REMARK  144  A    between atoms: _360  and  _361
REMARK  145  A    between atoms: _364  and  _366
REMARK  146  A    between atoms: _366  and  _367
REMARK  147  A    between atoms: _366  and  _369
REMARK  148  A    between atoms: _369  and  _370
REMARK  149  A    between atoms: _380  and  _382
REMARK  150  A    between atoms: _382  and  _383
REMARK  151  A    between atoms: _382  and  _385
REMARK  152  A    between atoms: _385  and  _386
REMARK  153  A    between atoms: _391  and  _393
REMARK  154  A    between atoms: _393  and  _394
REMARK  155  A    between atoms: _393  and  _396
REMARK  156  A    between atoms: _396  and  _397
REMARK  157  A    between atoms: _400  and  _402
REMARK  158  A    between atoms: _402  and  _403
REMARK  159  A    between atoms: _402  and  _405
REMARK  160  A    between atoms: _405  and  _406
REMARK  161  A    between atoms: _412  and  _414
REMARK  162  A    between atoms: _414  and  _415
REMARK  163  A    between atoms: _414  and  _417
REMARK  164  A    between atoms: _417  and  _418
REMARK  165  A    between atoms: _421  and  _423
REMARK  166  A    between atoms: _423  and  _424
REMARK  167  A    between atoms: _423  and  _426
REMARK  168  A    between atoms: _426  and  _427
REMARK  169  A    between atoms: _429  and  _431
REMARK  170  A    between atoms: _431  and  _432
REMARK  171  A    between atoms: _431  and  _434
REMARK  172  A    between atoms: _434  and  _435
REMARK  173  A    between atoms: _438  and  _440
REMARK  174  A    between atoms: _440  and  _441
REMARK  175  A    between atoms: _440  and  _443
REMARK  176  A    between atoms: _443  and  _444
REMARK  177  A    between atoms: _450  and  _452
REMARK  178  A    between atoms: _452  and  _453
REMARK  179  A    between atoms: _452  and  _455
REMARK  180  A    between atoms: _455  and  _456
REMARK  181  A    between atoms: _456  and  _457
REMARK  182  A    between atoms: _457  and  _458
REMARK  183  A    between atoms: _467  and  _469
REMARK  184  A    between atoms: _469  and  _470
REMARK  185  A    between atoms: _469  and  _472
REMARK  186  A    between atoms: _472  and  _473
REMARK  187  A    between atoms: _479  and  _481
REMARK  188  A    between atoms: _481  and  _482
REMARK  189  A    between atoms: _481  and  _484
REMARK  190  A    between atoms: _484  and  _485
REMARK  191  A    between atoms: _487  and  _489
REMARK  192  A    between atoms: _489  and  _490
REMARK  193  A    between atoms: _489  and  _492
REMARK  194  A    between atoms: _492  and  _493
REMARK  195  A    between atoms: _498  and  _500
REMARK  196  A    between atoms: _500  and  _501
REMARK  197  A    between atoms: _500  and  _503
REMARK  198  A    between atoms: _503  and  _504
REMARK  199  A    between atoms: _504  and  _505
REMARK  200  A    between atoms: _508  and  _510
REMARK  201  A    between atoms: _510  and  _511
REMARK  202  A    between atoms: _513  and  _515
REMARK  203  A    between atoms: _515  and  _516
REMARK  204  A    between atoms: _515  and  _518
REMARK  205  A    between atoms: _518  and  _519
REMARK  206  A    between atoms: _521  and  _523
REMARK  207  A    between atoms: _523  and  _524
REMARK  208  A    between atoms: _523  and  _526
REMARK  209  A    between atoms: _526  and  _527
REMARK  210  A    between atoms: _533  and  _535
REMARK  211  A    between atoms: _535  and  _536
REMARK  212  A    between atoms: _535  and  _538
REMARK  213  A    between atoms: _538  and  _539
REMARK  214  A    between atoms: _545  and  _547
REMARK  215  A    between atoms: _547  and  _548
REMARK  216  A    between atoms: _547  and  _550
REMARK  217  A    between atoms: _550  and  _551
REMARK  218  A    between atoms: _554  and  _556
REMARK  219  A    between atoms: _556  and  _557
REMARK  220  A    between atoms: _556  and  _559
REMARK  221  A    between atoms: _559  and  _560
REMARK  222  A    between atoms: _563  and  _565
REMARK  223  A    between atoms: _565  and  _566
REMARK  224  A    between atoms: _565  and  _568
REMARK  225  A    between atoms: _568  and  _569
REMARK  226  A    between atoms: _574  and  _575
REMARK  227  A    between atoms: _577  and  _579
REMARK  228  A    between atoms: _579  and  _580
REMARK  229  A    between atoms: _582  and  _584
REMARK  230  A    between atoms: _584  and  _585
REMARK  231  A    between atoms: _588  and  _590
REMARK  232  A    between atoms: _590  and  _591
REMARK  233  A    between atoms: _590  and  _593
REMARK  234  A    between atoms: _593  and  _594
REMARK  235  A    between atoms: _597  and  _599
REMARK  236  A    between atoms: _599  and  _600
REMARK  237  A    between atoms: _599  and  _602
REMARK  238  A    between atoms: _602  and  _603
REMARK  239  A    between atoms: _605  and  _607
REMARK  240  A    between atoms: _607  and  _608
REMARK  241  A    between atoms: _607  and  _610
REMARK  242  A    between atoms: _613  and  _615
REMARK  243  A    between atoms: _615  and  _616
REMARK  244  A    between atoms: _615  and  _618
REMARK  245  A    between atoms: _618  and  _619
REMARK  246  A    between atoms: _624  and  _626
REMARK  247  A    between atoms: _626  and  _627
REMARK  248  A    between atoms: _626  and  _629
REMARK  249  A    between atoms: _629  and  _630
REMARK  250  A    between atoms: _640  and  _642
REMARK  251  A    between atoms: _642  and  _643
REMARK  252  A    between atoms: _642  and  _645
REMARK  253  A    between atoms: _645  and  _646
REMARK  254  A    between atoms: _646  and  _647
REMARK  255  A    between atoms: _649  and  _651
REMARK  256  A    between atoms: _651  and  _652
REMARK  257  A    between atoms: _651  and  _654
REMARK  258  A    between atoms: _654  and  _655
REMARK  259  A    between atoms: _658  and  _660
REMARK  260  A    between atoms: _660  and  _661
REMARK  261  A    between atoms: _660  and  _663
REMARK  262  A    between atoms: _663  and  _664
REMARK  263  A    between atoms: _669  and  _671
REMARK  264  A    between atoms: _671  and  _672
REMARK  265  A    between atoms: _674  and  _676
REMARK  266  A    between atoms: _676  and  _677
REMARK  267  A    between atoms: _676  and  _679
REMARK  268  A    between atoms: _679  and  _680
REMARK  269  A    between atoms: _685  and  _686
REMARK  270  A    between atoms: _688  and  _690
REMARK  271  A    between atoms: _690  and  _691
REMARK  272  A    between atoms: _690  and  _693
REMARK  273  A    between atoms: _693  and  _694
REMARK  274  A    between atoms: _694  and  _695
REMARK  275  A    between atoms: _698  and  _700
REMARK  276  A    between atoms: _700  and  _701
REMARK  277  A    between atoms: _700  and  _703
REMARK  278  A    between atoms: _703  and  _704
REMARK                            x       y       z     vdW  Elec       q    Type
REMARK                         _______ _______ _______ _____ _____    ______ ____
ROOT
ATOM      1  CA  GLN A   1      11.066  66.797  54.670  0.00  0.00    +0.145 C 
ENDROOT
BRANCH   1   2
ATOM      2  C   GLN A   1      10.828  65.948  55.945  0.00  0.00    +0.238 C 
ATOM      3  N   SER A   2      11.941  65.459  56.519  0.00  0.00    -0.296 N 
ATOM      4  H   SER A   2      12.852  65.661  56.061  0.00  0.00    +0.150 HD
ATOM      5  O   GLN A   1       9.673  65.692  56.334  0.00  0.00    -0.274 OA
BRANCH   3   6
ATOM      6  CA  SER A   2      11.955  64.667  57.737  0.00  0.00    +0.166 C 
BRANCH   6   7
ATOM      7  CB  SER A   2      10.962  63.522  57.687  0.00  0.00    +0.229 C 
ATOM      8  OG  SER A   2      10.205  63.315  58.626  0.00  0.00    -0.286 OA
ENDBRANCH   6   7
BRANCH   6   9
ATOM      9  C   SER A   2      11.613  65.568  58.938  0.00  0.00    +0.165 C 
BRANCH   9  10
ATOM     10  O   SER A   2      12.424  66.742  59.034  0.00  0.00    -0.380 OA
ATOM     11  H   SER A   2      12.148  67.269  59.825  0.00  0.00    +0.211 HD
ENDBRANCH   9  10
ENDBRANCH   6   9
ENDBRANCH   3   6
ENDBRANCH   1   2
BRANCH   1  12
ATOM     12  N   GLN A   1      10.507  66.114  53.488  0.00  0.00    -0.238 NA
ATOM     13  H   GLN A   1       9.476  65.995  53.425  0.00  0.00    +0.142 HD
ENDBRANCH   1  12
BRANCH   1  14
ATOM     14  CB  GLN A   1      10.428  68.201  54.824  0.00  0.00    +0.036 C 
BRANCH  14  15
ATOM     15  CG  GLN A   1      10.681  69.069  53.597  0.00  0.00    +0.087 C 
BRANCH  15  16
ATOM     16  CD  GLN A   1       9.798  70.337  53.520  0.00  0.00    +0.219 C 
ATOM     17  NE2 GLN A   1       9.472  70.956  54.660  0.00  0.00    -0.329 N 
ATOM     18 HE21 GLN A   1       9.804  70.578  55.570  0.00  0.00    +0.145 HD
ATOM     19 HE22 GLN A   1       8.886  71.815  54.636  0.00  0.00    +0.145 HD
ATOM     20  OE1 GLN A   1       9.436  70.738  52.443  0.00  0.00    -0.275 OA
ENDBRANCH  15  16
ENDBRANCH  14  15
ENDBRANCH   1  14
TORSDOF 9
REMARK  Name = ../refined-set-2016/1h23/1h23_pocket.pdb
REMARK  278 active torsions:
REMARK  status: ('A' for Active; 'I' for Inactive)
REMARK    1  A    between atoms: _1  and  _3
REMARK    2  A    between atoms: _3  and  _4
REMARK    3  A    between atoms: _3  and  _6
REMARK    4  A    between atoms: _6  and  _7
REMARK    5  A    between atoms: _7  and  _8
REMARK    6  A    between atoms: _13  and  _15
REMARK    7  A    between atoms: _15  and  _16
REMARK    8  A    between atoms: _15  and  _18
REMARK    9  A    between atoms: _18  and  _19
REMARK   10  A    between atoms: _24  and  _25
REMARK   11  A    between atoms: _27  and  _29
REMARK   12  A    between atoms: _29  and  _30
REMARK   13  A    between atoms: _29  and  _32
REMARK   14  A    between atoms: _35  and  _37
REMARK   15  A    between atoms: _37  and  _38
REMARK   16  A    between atoms: _37  and  _40
REMARK   17  A    between atoms: _40  and  _41
REMARK   18  A    between atoms: _44  and  _46
REMARK   19  A    between atoms: _46  and  _47
REMARK   20  A    between atoms: _46  and  _49
REMARK   21  A    between atoms: _49  and  _50
REMARK   22  A    between atoms: _50  and  _51
REMARK   23  A    between atoms: _54  and  _56
REMARK   24  A    between atoms: _56  and  _57
REMARK   25  A    between atoms: _56  and  _59
REMARK   26  A    between atoms: _59  and  _60
REMARK   27  A    between atoms: _60  and  _61
REMARK   28  A    between atoms: _66  and  _68
REMARK   29  A    between atoms: _68  and  _69
REMARK   30  A    between atoms: _68  and  _71
REMARK   31  A    between atoms: _71  and  _72
REMARK   32  A    between atoms: _78  and  _80
REMARK   33  A    between atoms: _80  and  _81
REMARK   34  A    between atoms: _83  and  _85
REMARK   35  A    between atoms: _85  and  _86
REMARK   36  A    between atoms: _85  and  _88
REMARK   37  A    between atoms: _88  and  _89
REMARK   38  A    between atoms: _91  and  _93
REMARK   39  A    between atoms: _93  and  _94
REMARK   40  A    between atoms: _93  and  _96
REMARK   41  A    between atoms: _96  and  _97
REMARK   42  A    between atoms: _97  and  _98
REMARK   43  A    between atoms: _100  and  _102
REMARK   44  A    between atoms: _102  and  _103
REMARK   45  A    between atoms: _102  and  _105
REMARK   46  A    between atoms: _105  and  _106
REMARK   47  A    between atoms: _116  and  _118
REMARK   48  A    between atoms: _118  and  _119
REMARK   49  A    between atoms: _118  and  _121
REMARK   50  A    between atoms: _121  and  _122
REMARK   51  A    between atoms: _128  and  _129
REMARK   52  A    between atoms: _134  and  _136
REMARK   53  A    between atoms: _136  and  _137
REMARK   54  A    between atoms: _136  and  _139
REMARK   55  A    between atoms: _139  and  _140
REMARK   56  A    between atoms: _150  and  _152
REMARK   57  A    between atoms: _152  and  _153
REMARK   58  A    between atoms: _152  and  _155
REMARK   59  A    between atoms: _155  and  _156
REMARK   60  A    between atoms: _159  and  _161
REMARK   61  A    between atoms: _161  and  _162
REMARK   62  A    between atoms: _161  and  _164
REMARK   63  A    between atoms: _164  and  _165
REMARK   64  A    between atoms: _170  and  _171
REMARK   65  A    between atoms: _173  and  _175
REMARK   66  A    between atoms: _175  and  _176
REMARK   67  A    between atoms: _178  and  _180
REMARK   68  A    between atoms: _180  and  _181
REMARK   69  A    between atoms: _183  and  _185
REMARK   70  A    between atoms: _185  and  _186
REMARK   71  A    between atoms: _188  and  _190
REMARK   72  A    between atoms: _190  and  _191
REMARK   73  A    between atoms: _190  and  _193
REMARK   74  A    between atoms: _193  and  _194
REMARK   75  A    between atoms: _200  and  _202
REMARK   76  A    between atoms: _202  and  _203
REMARK   77  A    between atoms: _202  and  _205
REMARK   78  A    between atoms: _205  and  _206
REMARK   79  A    between atoms: _211  and  _212
REMARK   80  A    between atoms: _214  and  _216
REMARK   81  A    between atoms: _216  and  _217
REMARK   82  A    between atoms: _216  and  _219
REMARK   83  A    between atoms: _219  and  _220
REMARK   84  A    between atoms: _222  and  _224
REMARK   85  A    between atoms: _224  and  _225
REMARK   86  A    between atoms: _227  and  _229
REMARK   87  A    between atoms: _229  and  _230
REMARK   88  A    between atoms: _229  and  _232
REMARK   89  A    between atoms: _232  and  _233
REMARK   90  A    between atoms: _235  and  _237
REMARK   91  A    between atoms: _237  and  _238
REMARK   92  A    between atoms: _237  and  _240
REMARK   93  A    between atoms: _240  and  _241
REMARK   94  A    between atoms: _243  and  _245
REMARK   95  A    between atoms: _245  and  _246
REMARK   96  A    between atoms: _245  and  _248
REMARK   97  A    between atoms: _248  and  _249
REMARK   98  A    between atoms: _252  and  _254
REMARK   99  A    between atoms: _254  and  _255
REMARK  100  A    between atoms: _254  and  _257
REMARK  101  A    between atoms: _257  and  _258
REMARK  102  A    between atoms: _261  and  _263
REMARK  103  A    between atoms: _263  and  _264
REMARK  104  A    between atoms: _263  and  _266
REMARK  105  A    between atoms: _269  and  _271
REMARK  106  A    between atoms: _271  and  _272
REMARK  107  A    between atoms: _271  and  _274
REMARK  108  A    between atoms: _274  and  _275
REMARK  109  A    between atoms: _280  and  _281
REMARK  110  A    between atoms: _283  and  _285
REMARK  111  A    between atoms: _285  and  _286
REMARK  112  A    between atoms: _285  and  _288
REMARK  113  A    between atoms: _288  and  _289
REMARK  114  A    between atoms: _294  and  _295
REMARK  115  A    between atoms: _297  and  _299
REMARK  116  A    between atoms: _299  and  _300
REMARK  117  A    between atoms: _299  and  _302
REMARK  118  A    between atoms: _305  and  _307
REMARK  119  A    between atoms: _307  and  _308
REMARK  120  A    between atoms: _307  and  _310
REMARK  121  A    between atoms: _310  and  _311
REMARK  122  A    between atoms: _311  and  _312
REMARK  123  A    between atoms: _315  and  _317
REMARK  124  A    between atoms: _317  and  _318
REMARK  125  A    between atoms: _317  and  _320
REMARK  126  A    between atoms: _320  and  _321
REMARK  127  A    between atoms: _323  and  _325
REMARK  128  A    between atoms: _325  and  _326
REMARK  129  A    between atoms: _329  and  _331
REMARK  130  A    between atoms: _331  and  _332
REMARK  131  A    between atoms: _334  and  _336
REMARK  132  A    between atoms: _336  and  _337
REMARK  133  A    between atoms: _336  and  _339
REMARK  134  A    between atoms: _339  and  _340
REMARK  135  A    between atoms: _340  and  _341
REMARK  136  A    between atoms: _346  and  _348
REMARK  137  A    between atoms: _348  and  _349
REMARK  138  A    between atoms: _348  and  _351
REMARK  139  A    between atoms: _351  and  _352
REMARK  140  A    between atoms: _354  and  _356
REMARK  141  A    between atoms: _356  and  _357
REMARK  142  A    between atoms: _356  and  _359
REMARK  143  A    between atoms: _359  and  _360
REMARK  144  A    between atoms: _360  and  _361
REMARK  145  A    between atoms: _364  and  _366
REMARK  146  A    between atoms: _366  and  _367
REMARK  147  A    between atoms: _366  and  _369
REMARK  148  A    between atoms: _369  and  _370
REMARK  149  A    between atoms: _380  and  _382
REMARK  150  A    between atoms: _382  and  _383
REMARK  151  A    between atoms: _382  and  _385
REMARK  152  A    between atoms: _385  and  _386
REMARK  153  A    between atoms: _391  and  _393
REMARK  154  A    between atoms: _393  and  _394
REMARK  155  A    between atoms: _393  and  _396
REMARK  156  A    between atoms: _396  and  _397
REMARK  157  A    between atoms: _400  and  _402
REMARK  158  A    between atoms: _402  and  _403
REMARK  159  A    between atoms: _402  and  _405
REMARK  160  A    between atoms: _405  and  _406
REMARK  161  A    between atoms: _412  and  _414
REMARK  162  A    between atoms: _414  and  _415
REMARK  163  A    between atoms: _414  and  _417
REMARK  164  A    between atoms: _417  and  _418
REMARK  165  A    between atoms: _421  and  _423
REMARK  166  A    between atoms: _423  and  _424
REMARK  167  A    between atoms: _423  and  _426
REMARK  168  A    between atoms: _426  and  _427
REMARK  169  A    between atoms: _429  and  _431
REMARK  170  A    between atoms: _431  and  _432
REMARK  171  A    between atoms: _431  and  _434
REMARK  172  A    between atoms: _434  and  _435
REMARK  173  A    between atoms: _438  and  _440
REMARK  174  A    between atoms: _440  and  _441
REMARK  175  A    between atoms: _440  and  _443
REMARK  176  A    between atoms: _443  and  _444
REMARK  177  A    between atoms: _450  and  _452
REMARK  178  A    between atoms: _452  and  _453
REMARK  179  A    between atoms: _452  and  _455
REMARK  180  A    between atoms: _455  and  _456
REMARK  181  A    between atoms: _456  and  _457
REMARK  182  A    between atoms: _457  and  _458
REMARK  183  A    between atoms: _467  and  _469
REMARK  184  A    between atoms: _469  and  _470
REMARK  185  A    between atoms: _469  and  _472
REMARK  186  A    between atoms: _472  and  _473
REMARK  187  A    between atoms: _479  and  _481
REMARK  188  A    between atoms: _481  and  _482
REMARK  189  A    between atoms: _481  and  _484
REMARK  190  A    between atoms: _484  and  _485
REMARK  191  A    between atoms: _487  and  _489
REMARK  192  A    between atoms: _489  and  _490
REMARK  193  A    between atoms: _489  and  _492
REMARK  194  A    between atoms: _492  and  _493
REMARK  195  A    between atoms: _498  and  _500
REMARK  196  A    between atoms: _500  and  _501
REMARK  197  A    between atoms: _500  and  _503
REMARK  198  A    between atoms: _503  and  _504
REMARK  199  A    between atoms: _504  and  _505
REMARK  200  A    between atoms: _508  and  _510
REMARK  201  A    between atoms: _510  and  _511
REMARK  202  A    between atoms: _513  and  _515
REMARK  203  A    between atoms: _515  and  _516
REMARK  204  A    between atoms: _515  and  _518
REMARK  205  A    between atoms: _518  and  _519
REMARK  206  A    between atoms: _521  and  _523
REMARK  207  A    between atoms: _523  and  _524
REMARK  208  A    between atoms: _523  and  _526
REMARK  209  A    between atoms: _526  and  _527
REMARK  210  A    between atoms: _533  and  _535
REMARK  211  A    between atoms: _535  and  _536
REMARK  212  A    between atoms: _535  and  _538
REMARK  213  A    between atoms: _538  and  _539
REMARK  214  A    between atoms: _545  and  _547
REMARK  215  A    between atoms: _547  and  _548
REMARK  216  A    between atoms: _547  and  _550
REMARK  217  A    between atoms: _550  and  _551
REMARK  218  A    between atoms: _554  and  _556
REMARK  219  A    between atoms: _556  and  _557
REMARK  220  A    between atoms: _556  and  _559
REMARK  221  A    between atoms: _559  and  _560
REMARK  222  A    between atoms: _563  and  _565
REMARK  223  A    between atoms: _565  and  _566
REMARK  224  A    between atoms: _565  and  _568
REMARK  225  A    between atoms: _568  and  _569
REMARK  226  A    between atoms: _574  and  _575
REMARK  227  A    between atoms: _577  and  _579
REMARK  228  A    between atoms: _579  and  _580
REMARK  229  A    between atoms: _582  and  _584
REMARK  230  A    between atoms: _584  and  _585
REMARK  231  A    between atoms: _588  and  _590
REMARK  232  A    between atoms: _590  and  _591
REMARK  233  A    between atoms: _590  and  _593
REMARK  234  A    between atoms: _593  and  _594
REMARK  235  A    between atoms: _597  and  _599
REMARK  236  A    between atoms: _599  and  _600
REMARK  237  A    between atoms: _599  and  _602
REMARK  238  A    between atoms: _602  and  _603
REMARK  239  A    between atoms: _605  and  _607
REMARK  240  A    between atoms: _607  and  _608
REMARK  241  A    between atoms: _607  and  _610
REMARK  242  A    between atoms: _613  and  _615
REMARK  243  A    between atoms: _615  and  _616
REMARK  244  A    between atoms: _615  and  _618
REMARK  245  A    between atoms: _618  and  _619
REMARK  246  A    between atoms: _624  and  _626
REMARK  247  A    between atoms: _626  and  _627
REMARK  248  A    between atoms: _626  and  _629
REMARK  249  A    between atoms: _629  and  _630
REMARK  250  A    between atoms: _640  and  _642
REMARK  251  A    between atoms: _642  and  _643
REMARK  252  A    between atoms: _642  and  _645
REMARK  253  A    between atoms: _645  and  _646
REMARK  254  A    between atoms: _646  and  _647
REMARK  255  A    between atoms: _649  and  _651
REMARK  256  A    between atoms: _651  and  _652
REMARK  257  A    between atoms: _651  and  _654
REMARK  258  A    between atoms: _654  and  _655
REMARK  259  A    between atoms: _658  and  _660
REMARK  260  A    between atoms: _660  and  _661
REMARK  261  A    between atoms: _660  and  _663
REMARK  262  A    between atoms: _663  and  _664
REMARK  263  A    between atoms: _669  and  _671
REMARK  264  A    between atoms: _671  and  _672
REMARK  265  A    between atoms: _674  and  _676
REMARK  266  A    between atoms: _676  and  _677
REMARK  267  A    between atoms: _676  and  _679
REMARK  268  A    between atoms: _679  and  _680
REMARK  269  A    between atoms: _685  and  _686
REMARK  270  A    between atoms: _688  and  _690
REMARK  271  A    between atoms: _690  and  _691
REMARK  272  A    between atoms: _690  and  _693
REMARK  273  A    between atoms: _693  and  _694
REMARK  274  A    between atoms: _694  and  _695
REMARK  275  A    between atoms: _698  and  _700
REMARK  276  A    between atoms: _700  and  _701
REMARK  277  A    between atoms: _700  and  _703
REMARK  278  A    between atoms: _703  and  _704
REMARK                            x       y       z     vdW  Elec       q    Type
REMARK                         _______ _______ _______ _____ _____    ______ ____
ROOT
ATOM      1  CA  TRP A   2      -4.070  55.714  71.564  0.00  0.00    +0.153 C 
ENDROOT
BRANCH   1   3
ATOM      2  C   GLU A   1      -5.915  55.392  70.034  0.00  0.00    +0.238 C 
ATOM      3  N   TRP A   2      -5.375  56.063  71.043  0.00  0.00    -0.297 N 
ATOM      4  H   TRP A   2      -5.899  56.855  71.468  0.00  0.00    +0.150 HD
ATOM      5  O   GLU A   1      -5.346  54.448  69.508  0.00  0.00    -0.274 OA
BRANCH   2   6
ATOM      6  CA  GLU A   1      -7.279  55.888  69.520  0.00  0.00    +0.145 C 
BRANCH   6   7
ATOM      7  N   GLU A   1      -8.293  56.151  70.555  0.00  0.00    -0.238 NA
ATOM      8  H   GLU A   1      -8.844  57.031  70.497  0.00  0.00    +0.142 HD
ENDBRANCH   6   7
BRANCH   6   9
ATOM      9  CB  GLU A   1      -7.047  57.178  68.743  0.00  0.00    +0.038 C 
BRANCH   9  10
ATOM     10  CG  GLU A   1      -6.074  57.092  67.568  0.00  0.00    +0.116 C 
BRANCH  10  11
ATOM     11  CD  GLU A   1      -5.837  58.442  66.839  0.00  0.00    +0.365 C 
ATOM     12  OE2 GLU A   1      -6.771  59.258  66.701  0.00  0.00    -0.246 OA
ATOM     13  OE1 GLU A   1      -4.701  58.656  66.373  0.00  0.00    -0.246 OA
ENDBRANCH  10  11
ENDBRANCH   9  10
ENDBRANCH   6   9
ENDBRANCH   2   6
ENDBRANCH   1   3
BRANCH   1  14
ATOM     14  C   TRP A   2      -4.089  54.408  72.346  0.00  0.00    +0.241 C 
ATOM     15  N   ASN A   3      -5.268  53.866  72.650  0.00  0.00    -0.298 N 
ATOM     16  H   ASN A   3      -6.151  54.337  72.366  0.00  0.00    +0.150 HD
ATOM     17  O   TRP A   2      -3.032  53.872  72.643  0.00  0.00    -0.273 OA
BRANCH  15  18
ATOM     18  CA  ASN A   3      -5.310  52.596  73.390  0.00  0.00    +0.146 C 
BRANCH  18  19
ATOM     19  C   ASN A   3      -4.961  51.371  72.575  0.00  0.00    +0.227 C 
ATOM     20  O   ASN A   3      -4.681  50.329  73.138  0.00  0.00    -0.286 OA
ENDBRANCH  18  19
BRANCH  18  21
ATOM     21  CB  ASN A   3      -6.693  52.339  74.006  0.00  0.00    +0.112 C 
BRANCH  21  22
ATOM     22  CG  ASN A   3      -7.090  53.409  75.055  0.00  0.00    +0.222 C 
ATOM     23  OD1 ASN A   3      -6.256  54.213  75.514  0.00  0.00    -0.275 OA
ATOM     24  ND2 ASN A   3      -8.359  53.417  75.430  0.00  0.00    -0.329 N 
ATOM     25 HD21 ASN A   3      -8.690  54.111  76.131  0.00  0.00    +0.145 HD
ATOM     26 HD22 ASN A   3      -9.026  52.730  75.024  0.00  0.00    +0.145 HD
ENDBRANCH  21  22
ENDBRANCH  18  21
ENDBRANCH  15  18
ENDBRANCH   1  14
BRANCH   1  27
ATOM     27  CB  TRP A   2      -3.520  56.851  72.436  0.00  0.00    +0.057 C 
BRANCH  27  28
ATOM     28  CG  TRP A   2      -3.322  58.120  71.667  0.00  0.00    -0.002 A 
ATOM     29  CD1 TRP A   2      -4.209  59.179  71.561  0.00  0.00    +0.068 A 
ATOM     30  NE1 TRP A   2      -3.735  60.091  70.646  0.00  0.00    -0.352 N 
ATOM     31  HE1 TRP A   2      -4.209  60.977  70.378  0.00  0.00    +0.166 HD
ATOM     32  CE2 TRP A   2      -2.535  59.645  70.141  0.00  0.00    +0.056 A 
ATOM     33  CZ2 TRP A   2      -1.679  60.233  69.185  0.00  0.00    +0.017 A 
ATOM     34  CH2 TRP A   2      -0.544  59.559  68.860  0.00  0.00    +0.001 A 
ATOM     35  CZ3 TRP A   2      -0.220  58.338  69.468  0.00  0.00    +0.000 A 
ATOM     36  CE3 TRP A   2      -1.069  57.759  70.423  0.00  0.00    +0.001 A 
ATOM     37  CD2 TRP A   2      -2.238  58.419  70.769  0.00  0.00    +0.013 A 
ENDBRANCH  27  28
ENDBRANCH   1  27
TORSDOF 13
REMARK  Name = ../refined-set-2016/1h23/1h23_pocket.pdb
REMARK  278 active torsions:
REMARK  status: ('A' for Active; 'I' for Inactive)
REMARK    1  A    between atoms: _1  and  _3
REMARK    2  A    between atoms: _3  and  _4
REMARK    3  A    between atoms: _3  and  _6
REMARK    4  A    between atoms: _6  and  _7
REMARK    5  A    between atoms: _7  and  _8
REMARK    6  A    between atoms: _13  and  _15
REMARK    7  A    between atoms: _15  and  _16
REMARK    8  A    between atoms: _15  and  _18
REMARK    9  A    between atoms: _18  and  _19
REMARK   10  A    between atoms: _24  and  _25
REMARK   11  A    between atoms: _27  and  _29
REMARK   12  A    between atoms: _29  and  _30
REMARK   13  A    between atoms: _29  and  _32
REMARK   14  A    between atoms: _35  and  _37
REMARK   15  A    between atoms: _37  and  _38
REMARK   16  A    between atoms: _37  and  _40
REMARK   17  A    between atoms: _40  and  _41
REMARK   18  A    between atoms: _44  and  _46
REMARK   19  A    between atoms: _46  and  _47
REMARK   20  A    between atoms: _46  and  _49
REMARK   21  A    between atoms: _49  and  _50
REMARK   22  A    between atoms: _50  and  _51
REMARK   23  A    between atoms: _54  and  _56
REMARK   24  A    between atoms: _56  and  _57
REMARK   25  A    between atoms: _56  and  _59
REMARK   26  A    between atoms: _59  and  _60
REMARK   27  A    between atoms: _60  and  _61
REMARK   28  A    between atoms: _66  and  _68
REMARK   29  A    between atoms: _68  and  _69
REMARK   30  A    between atoms: _68  and  _71
REMARK   31  A    between atoms: _71  and  _72
REMARK   32  A    between atoms: _78  and  _80
REMARK   33  A    between atoms: _80  and  _81
REMARK   34  A    between atoms: _83  and  _85
REMARK   35  A    between atoms: _85  and  _86
REMARK   36  A    between atoms: _85  and  _88
REMARK   37  A    between atoms: _88  and  _89
REMARK   38  A    between atoms: _91  and  _93
REMARK   39  A    between atoms: _93  and  _94
REMARK   40  A    between atoms: _93  and  _96
REMARK   41  A    between atoms: _96  and  _97
REMARK   42  A    between atoms: _97  and  _98
REMARK   43  A    between atoms: _100  and  _102
REMARK   44  A    between atoms: _102  and  _103
REMARK   45  A    between atoms: _102  and  _105
REMARK   46  A    between atoms: _105  and  _106
REMARK   47  A    between atoms: _116  and  _118
REMARK   48  A    between atoms: _118  and  _119
REMARK   49  A    between atoms: _118  and  _121
REMARK   50  A    between atoms: _121  and  _122
REMARK   51  A    between atoms: _128  and  _129
REMARK   52  A    between atoms: _134  and  _136
REMARK   53  A    between atoms: _136  and  _137
REMARK   54  A    between atoms: _136  and  _139
REMARK   55  A    between atoms: _139  and  _140
REMARK   56  A    between atoms: _150  and  _152
REMARK   57  A    between atoms: _152  and  _153
REMARK   58  A    between atoms: _152  and  _155
REMARK   59  A    between atoms: _155  and  _156
REMARK   60  A    between atoms: _159  and  _161
REMARK   61  A    between atoms: _161  and  _162
REMARK   62  A    between atoms: _161  and  _164
REMARK   63  A    between atoms: _164  and  _165
REMARK   64  A    between atoms: _170  and  _171
REMARK   65  A    between atoms: _173  and  _175
REMARK   66  A    between atoms: _175  and  _176
REMARK   67  A    between atoms: _178  and  _180
REMARK   68  A    between atoms: _180  and  _181
REMARK   69  A    between atoms: _183  and  _185
REMARK   70  A    between atoms: _185  and  _186
REMARK   71  A    between atoms: _188  and  _190
REMARK   72  A    between atoms: _190  and  _191
REMARK   73  A    between atoms: _190  and  _193
REMARK   74  A    between atoms: _193  and  _194
REMARK   75  A    between atoms: _200  and  _202
REMARK   76  A    between atoms: _202  and  _203
REMARK   77  A    between atoms: _202  and  _205
REMARK   78  A    between atoms: _205  and  _206
REMARK   79  A    between atoms: _211  and  _212
REMARK   80  A    between atoms: _214  and  _216
REMARK   81  A    between atoms: _216  and  _217
REMARK   82  A    between atoms: _216  and  _219
REMARK   83  A    between atoms: _219  and  _220
REMARK   84  A    between atoms: _222  and  _224
REMARK   85  A    between atoms: _224  and  _225
REMARK   86  A    between atoms: _227  and  _229
REMARK   87  A    between atoms: _229  and  _230
REMARK   88  A    between atoms: _229  and  _232
REMARK   89  A    between atoms: _232  and  _233
REMARK   90  A    between atoms: _235  and  _237
REMARK   91  A    between atoms: _237  and  _238
REMARK   92  A    between atoms: _237  and  _240
REMARK   93  A    between atoms: _240  and  _241
REMARK   94  A    between atoms: _243  and  _245
REMARK   95  A    between atoms: _245  and  _246
REMARK   96  A    between atoms: _245  and  _248
REMARK   97  A    between atoms: _248  and  _249
REMARK   98  A    between atoms: _252  and  _254
REMARK   99  A    between atoms: _254  and  _255
REMARK  100  A    between atoms: _254  and  _257
REMARK  101  A    between atoms: _257  and  _258
REMARK  102  A    between atoms: _261  and  _263
REMARK  103  A    between atoms: _263  and  _264
REMARK  104  A    between atoms: _263  and  _266
REMARK  105  A    between atoms: _269  and  _271
REMARK  106  A    between atoms: _271  and  _272
REMARK  107  A    between atoms: _271  and  _274
REMARK  108  A    between atoms: _274  and  _275
REMARK  109  A    between atoms: _280  and  _281
REMARK  110  A    between atoms: _283  and  _285
REMARK  111  A    between atoms: _285  and  _286
REMARK  112  A    between atoms: _285  and  _288
REMARK  113  A    between atoms: _288  and  _289
REMARK  114  A    between atoms: _294  and  _295
REMARK  115  A    between atoms: _297  and  _299
REMARK  116  A    between atoms: _299  and  _300
REMARK  117  A    between atoms: _299  and  _302
REMARK  118  A    between atoms: _305  and  _307
REMARK  119  A    between atoms: _307  and  _308
REMARK  120  A    between atoms: _307  and  _310
REMARK  121  A    between atoms: _310  and  _311
REMARK  122  A    between atoms: _311  and  _312
REMARK  123  A    between atoms: _315  and  _317
REMARK  124  A    between atoms: _317  and  _318
REMARK  125  A    between atoms: _317  and  _320
REMARK  126  A    between atoms: _320  and  _321
REMARK  127  A    between atoms: _323  and  _325
REMARK  128  A    between atoms: _325  and  _326
REMARK  129  A    between atoms: _329  and  _331
REMARK  130  A    between atoms: _331  and  _332
REMARK  131  A    between atoms: _334  and  _336
REMARK  132  A    between atoms: _336  and  _337
REMARK  133  A    between atoms: _336  and  _339
REMARK  134  A    between atoms: _339  and  _340
REMARK  135  A    between atoms: _340  and  _341
REMARK  136  A    between atoms: _346  and  _348
REMARK  137  A    between atoms: _348  and  _349
REMARK  138  A    between atoms: _348  and  _351
REMARK  139  A    between atoms: _351  and  _352
REMARK  140  A    between atoms: _354  and  _356
REMARK  141  A    between atoms: _356  and  _357
REMARK  142  A    between atoms: _356  and  _359
REMARK  143  A    between atoms: _359  and  _360
REMARK  144  A    between atoms: _360  and  _361
REMARK  145  A    between atoms: _364  and  _366
REMARK  146  A    between atoms: _366  and  _367
REMARK  147  A    between atoms: _366  and  _369
REMARK  148  A    between atoms: _369  and  _370
REMARK  149  A    between atoms: _380  and  _382
REMARK  150  A    between atoms: _382  and  _383
REMARK  151  A    between atoms: _382  and  _385
REMARK  152  A    between atoms: _385  and  _386
REMARK  153  A    between atoms: _391  and  _393
REMARK  154  A    between atoms: _393  and  _394
REMARK  155  A    between atoms: _393  and  _396
REMARK  156  A    between atoms: _396  and  _397
REMARK  157  A    between atoms: _400  and  _402
REMARK  158  A    between atoms: _402  and  _403
REMARK  159  A    between atoms: _402  and  _405
REMARK  160  A    between atoms: _405  and  _406
REMARK  161  A    between atoms: _412  and  _414
REMARK  162  A    between atoms: _414  and  _415
REMARK  163  A    between atoms: _414  and  _417
REMARK  164  A    between atoms: _417  and  _418
REMARK  165  A    between atoms: _421  and  _423
REMARK  166  A    between atoms: _423  and  _424
REMARK  167  A    between atoms: _423  and  _426
REMARK  168  A    between atoms: _426  and  _427
REMARK  169  A    between atoms: _429  and  _431
REMARK  170  A    between atoms: _431  and  _432
REMARK  171  A    between atoms: _431  and  _434
REMARK  172  A    between atoms: _434  and  _435
REMARK  173  A    between atoms: _438  and  _440
REMARK  174  A    between atoms: _440  and  _441
REMARK  175  A    between atoms: _440  and  _443
REMARK  176  A    between atoms: _443  and  _444
REMARK  177  A    between atoms: _450  and  _452
REMARK  178  A    between atoms: _452  and  _453
REMARK  179  A    between atoms: _452  and  _455
REMARK  180  A    between atoms: _455  and  _456
REMARK  181  A    between atoms: _456  and  _457
REMARK  182  A    between atoms: _457  and  _458
REMARK  183  A    between atoms: _467  and  _469
REMARK  184  A    between atoms: _469  and  _470
REMARK  185  A    between atoms: _469  and  _472
REMARK  186  A    between atoms: _472  and  _473
REMARK  187  A    between atoms: _479  and  _481
REMARK  188  A    between atoms: _481  and  _482
REMARK  189  A    between atoms: _481  and  _484
REMARK  190  A    between atoms: _484  and  _485
REMARK  191  A    between atoms: _487  and  _489
REMARK  192  A    between atoms: _489  and  _490
REMARK  193  A    between atoms: _489  and  _492
REMARK  194  A    between atoms: _492  and  _493
REMARK  195  A    between atoms: _498  and  _500
REMARK  196  A    between atoms: _500  and  _501
REMARK  197  A    between atoms: _500  and  _503
REMARK  198  A    between atoms: _503  and  _504
REMARK  199  A    between atoms: _504  and  _505
REMARK  200  A    between atoms: _508  and  _510
REMARK  201  A    between atoms: _510  and  _511
REMARK  202  A    between atoms: _513  and  _515
REMARK  203  A    between atoms: _515  and  _516
REMARK  204  A    between atoms: _515  and  _518
REMARK  205  A    between atoms: _518  and  _519
REMARK  206  A    between atoms: _521  and  _523
REMARK  207  A    between atoms: _523  and  _524
REMARK  208  A    between atoms: _523  and  _526
REMARK  209  A    between atoms: _526  and  _527
REMARK  210  A    between atoms: _533  and  _535
REMARK  211  A    between atoms: _535  and  _536
REMARK  212  A    between atoms: _535  and  _538
REMARK  213  A    between atoms: _538  and  _539
REMARK  214  A    between atoms: _545  and  _547
REMARK  215  A    between atoms: _547  and  _548
REMARK  216  A    between atoms: _547  and  _550
REMARK  217  A    between atoms: _550  and  _551
REMARK  218  A    between atoms: _554  and  _556
REMARK  219  A    between atoms: _556  and  _557
REMARK  220  A    between atoms: _556  and  _559
REMARK  221  A    between atoms: _559  and  _560
REMARK  222  A    between atoms: _563  and  _565
REMARK  223  A    between atoms: _565  and  _566
REMARK  224  A    between atoms: _565  and  _568
REMARK  225  A    between atoms: _568  and  _569
REMARK  226  A    between atoms: _574  and  _575
REMARK  227  A    between atoms: _577  and  _579
REMARK  228  A    between atoms: _579  and  _580
REMARK  229  A    between atoms: _582  and  _584
REMARK  230  A    between atoms: _584  and  _585
REMARK  231  A    between atoms: _588  and  _590
REMARK  232  A    between atoms: _590  and  _591
REMARK  233  A    between atoms: _590  and  _593
REMARK  234  A    between atoms: _593  and  _594
REMARK  235  A    between atoms: _597  and  _599
REMARK  236  A    between atoms: _599  and  _600
REMARK  237  A    between atoms: _599  and  _602
REMARK  238  A    between atoms: _602  and  _603
REMARK  239  A    between atoms: _605  and  _607
REMARK  240  A    between atoms: _607  and  _608
REMARK  241  A    between atoms: _607  and  _610
REMARK  242  A    between atoms: _613  and  _615
REMARK  243  A    between atoms: _615  and  _616
REMARK  244  A    between atoms: _615  and  _618
REMARK  245  A    between atoms: _618  and  _619
REMARK  246  A    between atoms: _624  and  _626
REMARK  247  A    between atoms: _626  and  _627
REMARK  248  A    between atoms: _626  and  _629
REMARK  249  A    between atoms: _629  and  _630
REMARK  250  A    between atoms: _640  and  _642
REMARK  251  A    between atoms: _642  and  _643
REMARK  252  A    between atoms: _642  and  _645
REMARK  253  A    between atoms: _645  and  _646
REMARK  254  A    between atoms: _646  and  _647
REMARK  255  A    between atoms: _649  and  _651
REMARK  256  A    between atoms: _651  and  _652
REMARK  257  A    between atoms: _651  and  _654
REMARK  258  A    between atoms: _654  and  _655
REMARK  259  A    between atoms: _658  and  _660
REMARK  260  A    between atoms: _660  and  _661
REMARK  261  A    between atoms: _660  and  _663
REMARK  262  A    between atoms: _663  and  _664
REMARK  263  A    between atoms: _669  and  _671
REMARK  264  A    between atoms: _671  and  _672
REMARK  265  A    between atoms: _674  and  _676
REMARK  266  A    between atoms: _676  and  _677
REMARK  267  A    between atoms: _676  and  _679
REMARK  268  A    between atoms: _679  and  _680
REMARK  269  A    between atoms: _685  and  _686
REMARK  270  A    between atoms: _688  and  _690
REMARK  271  A    between atoms: _690  and  _691
REMARK  272  A    between atoms: _690  and  _693
REMARK  273  A    between atoms: _693  and  _694
REMARK  274  A    between atoms: _694  and  _695
REMARK  275  A    between atoms: _698  and  _700
REMARK  276  A    between atoms: _700  and  _701
REMARK  277  A    between atoms: _700  and  _703
REMARK  278  A    between atoms: _703  and  _704
REMARK                            x       y       z     vdW  Elec       q    Type
REMARK                         _______ _______ _______ _____ _____    ______ ____
ROOT
ATOM      1  CA  LEU A   1      -0.919  50.636  70.154  0.00  0.00    +0.133 C 
ENDROOT
BRANCH   1   2
ATOM      2  N   LEU A   1      -2.338  50.874  70.482  0.00  0.00    -0.239 NA
ATOM      3  H   LEU A   1      -2.613  51.711  71.035  0.00  0.00    +0.142 HD
ENDBRANCH   1   2
BRANCH   1   4
ATOM      4  C   LEU A   1      -0.552  49.297  70.782  0.00  0.00    +0.224 C 
ATOM      5  O   LEU A   1      -1.006  48.965  71.885  0.00  0.00    -0.287 OA
ENDBRANCH   1   4
BRANCH   1   6
ATOM      6  CB  LEU A   1      -0.013  51.714  70.757  0.00  0.00    +0.025 C 
BRANCH   6   7
ATOM      7  CG  LEU A   1      -0.140  53.003  69.933  0.00  0.00    +0.002 C 
ATOM      8  CD2 LEU A   1       0.649  54.096  70.558  0.00  0.00    +0.000 C 
ATOM      9  CD1 LEU A   1       0.291  52.757  68.493  0.00  0.00    +0.000 C 
ENDBRANCH   6   7
ENDBRANCH   1   6
TORSDOF 4
REMARK  Name = ../refined-set-2016/1h23/1h23_pocket.pdb
REMARK  278 active torsions:
REMARK  status: ('A' for Active; 'I' for Inactive)
REMARK    1  A    between atoms: _1  and  _3
REMARK    2  A    between atoms: _3  and  _4
REMARK    3  A    between atoms: _3  and  _6
REMARK    4  A    between atoms: _6  and  _7
REMARK    5  A    between atoms: _7  and  _8
REMARK    6  A    between atoms: _13  and  _15
REMARK    7  A    between atoms: _15  and  _16
REMARK    8  A    between atoms: _15  and  _18
REMARK    9  A    between atoms: _18  and  _19
REMARK   10  A    between atoms: _24  and  _25
REMARK   11  A    between atoms: _27  and  _29
REMARK   12  A    between atoms: _29  and  _30
REMARK   13  A    between atoms: _29  and  _32
REMARK   14  A    between atoms: _35  and  _37
REMARK   15  A    between atoms: _37  and  _38
REMARK   16  A    between atoms: _37  and  _40
REMARK   17  A    between atoms: _40  and  _41
REMARK   18  A    between atoms: _44  and  _46
REMARK   19  A    between atoms: _46  and  _47
REMARK   20  A    between atoms: _46  and  _49
REMARK   21  A    between atoms: _49  and  _50
REMARK   22  A    between atoms: _50  and  _51
REMARK   23  A    between atoms: _54  and  _56
REMARK   24  A    between atoms: _56  and  _57
REMARK   25  A    between atoms: _56  and  _59
REMARK   26  A    between atoms: _59  and  _60
REMARK   27  A    between atoms: _60  and  _61
REMARK   28  A    between atoms: _66  and  _68
REMARK   29  A    between atoms: _68  and  _69
REMARK   30  A    between atoms: _68  and  _71
REMARK   31  A    between atoms: _71  and  _72
REMARK   32  A    between atoms: _78  and  _80
REMARK   33  A    between atoms: _80  and  _81
REMARK   34  A    between atoms: _83  and  _85
REMARK   35  A    between atoms: _85  and  _86
REMARK   36  A    between atoms: _85  and  _88
REMARK   37  A    between atoms: _88  and  _89
REMARK   38  A    between atoms: _91  and  _93
REMARK   39  A    between atoms: _93  and  _94
REMARK   40  A    between atoms: _93  and  _96
REMARK   41  A    between atoms: _96  and  _97
REMARK   42  A    between atoms: _97  and  _98
REMARK   43  A    between atoms: _100  and  _102
REMARK   44  A    between atoms: _102  and  _103
REMARK   45  A    between atoms: _102  and  _105
REMARK   46  A    between atoms: _105  and  _106
REMARK   47  A    between atoms: _116  and  _118
REMARK   48  A    between atoms: _118  and  _119
REMARK   49  A    between atoms: _118  and  _121
REMARK   50  A    between atoms: _121  and  _122
REMARK   51  A    between atoms: _128  and  _129
REMARK   52  A    between atoms: _134  and  _136
REMARK   53  A    between atoms: _136  and  _137
REMARK   54  A    between atoms: _136  and  _139
REMARK   55  A    between atoms: _139  and  _140
REMARK   56  A    between atoms: _150  and  _152
REMARK   57  A    between atoms: _152  and  _153
REMARK   58  A    between atoms: _152  and  _155
REMARK   59  A    between atoms: _155  and  _156
REMARK   60  A    between atoms: _159  and  _161
REMARK   61  A    between atoms: _161  and  _162
REMARK   62  A    between atoms: _161  and  _164
REMARK   63  A    between atoms: _164  and  _165
REMARK   64  A    between atoms: _170  and  _171
REMARK   65  A    between atoms: _173  and  _175
REMARK   66  A    between atoms: _175  and  _176
REMARK   67  A    between atoms: _178  and  _180
REMARK   68  A    between atoms: _180  and  _181
REMARK   69  A    between atoms: _183  and  _185
REMARK   70  A    between atoms: _185  and  _186
REMARK   71  A    between atoms: _188  and  _190
REMARK   72  A    between atoms: _190  and  _191
REMARK   73  A    between atoms: _190  and  _193
REMARK   74  A    between atoms: _193  and  _194
REMARK   75  A    between atoms: _200  and  _202
REMARK   76  A    between atoms: _202  and  _203
REMARK   77  A    between atoms: _202  and  _205
REMARK   78  A    between atoms: _205  and  _206
REMARK   79  A    between atoms: _211  and  _212
REMARK   80  A    between atoms: _214  and  _216
REMARK   81  A    between atoms: _216  and  _217
REMARK   82  A    between atoms: _216  and  _219
REMARK   83  A    between atoms: _219  and  _220
REMARK   84  A    between atoms: _222  and  _224
REMARK   85  A    between atoms: _224  and  _225
REMARK   86  A    between atoms: _227  and  _229
REMARK   87  A    between atoms: _229  and  _230
REMARK   88  A    between atoms: _229  and  _232
REMARK   89  A    between atoms: _232  and  _233
REMARK   90  A    between atoms: _235  and  _237
REMARK   91  A    between atoms: _237  and  _238
REMARK   92  A    between atoms: _237  and  _240
REMARK   93  A    between atoms: _240  and  _241
REMARK   94  A    between atoms: _243  and  _245
REMARK   95  A    between atoms: _245  and  _246
REMARK   96  A    between atoms: _245  and  _248
REMARK   97  A    between atoms: _248  and  _249
REMARK   98  A    between atoms: _252  and  _254
REMARK   99  A    between atoms: _254  and  _255
REMARK  100  A    between atoms: _254  and  _257
REMARK  101  A    between atoms: _257  and  _258
REMARK  102  A    between atoms: _261  and  _263
REMARK  103  A    between atoms: _263  and  _264
REMARK  104  A    between atoms: _263  and  _266
REMARK  105  A    between atoms: _269  and  _271
REMARK  106  A    between atoms: _271  and  _272
REMARK  107  A    between atoms: _271  and  _274
REMARK  108  A    between atoms: _274  and  _275
REMARK  109  A    between atoms: _280  and  _281
REMARK  110  A    between atoms: _283  and  _285
REMARK  111  A    between atoms: _285  and  _286
REMARK  112  A    between atoms: _285  and  _288
REMARK  113  A    between atoms: _288  and  _289
REMARK  114  A    between atoms: _294  and  _295
REMARK  115  A    between atoms: _297  and  _299
REMARK  116  A    between atoms: _299  and  _300
REMARK  117  A    between atoms: _299  and  _302
REMARK  118  A    between atoms: _305  and  _307
REMARK  119  A    between atoms: _307  and  _308
REMARK  120  A    between atoms: _307  and  _310
REMARK  121  A    between atoms: _310  and  _311
REMARK  122  A    between atoms: _311  and  _312
REMARK  123  A    between atoms: _315  and  _317
REMARK  124  A    between atoms: _317  and  _318
REMARK  125  A    between atoms: _317  and  _320
REMARK  126  A    between atoms: _320  and  _321
REMARK  127  A    between atoms: _323  and  _325
REMARK  128  A    between atoms: _325  and  _326
REMARK  129  A    between atoms: _329  and  _331
REMARK  130  A    between atoms: _331  and  _332
REMARK  131  A    between atoms: _334  and  _336
REMARK  132  A    between atoms: _336  and  _337
REMARK  133  A    between atoms: _336  and  _339
REMARK  134  A    between atoms: _339  and  _340
REMARK  135  A    between atoms: _340  and  _341
REMARK  136  A    between atoms: _346  and  _348
REMARK  137  A    between atoms: _348  and  _349
REMARK  138  A    between atoms: _348  and  _351
REMARK  139  A    between atoms: _351  and  _352
REMARK  140  A    between atoms: _354  and  _356
REMARK  141  A    between atoms: _356  and  _357
REMARK  142  A    between atoms: _356  and  _359
REMARK  143  A    between atoms: _359  and  _360
REMARK  144  A    between atoms: _360  and  _361
REMARK  145  A    between atoms: _364  and  _366
REMARK  146  A    between atoms: _366  and  _367
REMARK  147  A    between atoms: _366  and  _369
REMARK  148  A    between atoms: _369  and  _370
REMARK  149  A    between atoms: _380  and  _382
REMARK  150  A    between atoms: _382  and  _383
REMARK  151  A    between atoms: _382  and  _385
REMARK  152  A    between atoms: _385  and  _386
REMARK  153  A    between atoms: _391  and  _393
REMARK  154  A    between atoms: _393  and  _394
REMARK  155  A    between atoms: _393  and  _396
REMARK  156  A    between atoms: _396  and  _397
REMARK  157  A    between atoms: _400  and  _402
REMARK  158  A    between atoms: _402  and  _403
REMARK  159  A    between atoms: _402  and  _405
REMARK  160  A    between atoms: _405  and  _406
REMARK  161  A    between atoms: _412  and  _414
REMARK  162  A    between atoms: _414  and  _415
REMARK  163  A    between atoms: _414  and  _417
REMARK  164  A    between atoms: _417  and  _418
REMARK  165  A    between atoms: _421  and  _423
REMARK  166  A    between atoms: _423  and  _424
REMARK  167  A    between atoms: _423  and  _426
REMARK  168  A    between atoms: _426  and  _427
REMARK  169  A    between atoms: _429  and  _431
REMARK  170  A    between atoms: _431  and  _432
REMARK  171  A    between atoms: _431  and  _434
REMARK  172  A    between atoms: _434  and  _435
REMARK  173  A    between atoms: _438  and  _440
REMARK  174  A    between atoms: _440  and  _441
REMARK  175  A    between atoms: _440  and  _443
REMARK  176  A    between atoms: _443  and  _444
REMARK  177  A    between atoms: _450  and  _452
REMARK  178  A    between atoms: _452  and  _453
REMARK  179  A    between atoms: _452  and  _455
REMARK  180  A    between atoms: _455  and  _456
REMARK  181  A    between atoms: _456  and  _457
REMARK  182  A    between atoms: _457  and  _458
REMARK  183  A    between atoms: _467  and  _469
REMARK  184  A    between atoms: _469  and  _470
REMARK  185  A    between atoms: _469  and  _472
REMARK  186  A    between atoms: _472  and  _473
REMARK  187  A    between atoms: _479  and  _481
REMARK  188  A    between atoms: _481  and  _482
REMARK  189  A    between atoms: _481  and  _484
REMARK  190  A    between atoms: _484  and  _485
REMARK  191  A    between atoms: _487  and  _489
REMARK  192  A    between atoms: _489  and  _490
REMARK  193  A    between atoms: _489  and  _492
REMARK  194  A    between atoms: _492  and  _493
REMARK  195  A    between atoms: _498  and  _500
REMARK  196  A    between atoms: _500  and  _501
REMARK  197  A    between atoms: _500  and  _503
REMARK  198  A    between atoms: _503  and  _504
REMARK  199  A    between atoms: _504  and  _505
REMARK  200  A    between atoms: _508  and  _510
REMARK  201  A    between atoms: _510  and  _511
REMARK  202  A    between atoms: _513  and  _515
REMARK  203  A    between atoms: _515  and  _516
REMARK  204  A    between atoms: _515  and  _518
REMARK  205  A    between atoms: _518  and  _519
REMARK  206  A    between atoms: _521  and  _523
REMARK  207  A    between atoms: _523  and  _524
REMARK  208  A    between atoms: _523  and  _526
REMARK  209  A    between atoms: _526  and  _527
REMARK  210  A    between atoms: _533  and  _535
REMARK  211  A    between atoms: _535  and  _536
REMARK  212  A    between atoms: _535  and  _538
REMARK  213  A    between atoms: _538  and  _539
REMARK  214  A    between atoms: _545  and  _547
REMARK  215  A    between atoms: _547  and  _548
REMARK  216  A    between atoms: _547  and  _550
REMARK  217  A    between atoms: _550  and  _551
REMARK  218  A    between atoms: _554  and  _556
REMARK  219  A    between atoms: _556  and  _557
REMARK  220  A    between atoms: _556  and  _559
REMARK  221  A    between atoms: _559  and  _560
REMARK  222  A    between atoms: _563  and  _565
REMARK  223  A    between atoms: _565  and  _566
REMARK  224  A    between atoms: _565  and  _568
REMARK  225  A    between atoms: _568  and  _569
REMARK  226  A    between atoms: _574  and  _575
REMARK  227  A    between atoms: _577  and  _579
REMARK  228  A    between atoms: _579  and  _580
REMARK  229  A    between atoms: _582  and  _584
REMARK  230  A    between atoms: _584  and  _585
REMARK  231  A    between atoms: _588  and  _590
REMARK  232  A    between atoms: _590  and  _591
REMARK  233  A    between atoms: _590  and  _593
REMARK  234  A    between atoms: _593  and  _594
REMARK  235  A    between atoms: _597  and  _599
REMARK  236  A    between atoms: _599  and  _600
REMARK  237  A    between atoms: _599  and  _602
REMARK  238  A    between atoms: _602  and  _603
REMARK  239  A    between atoms: _605  and  _607
REMARK  240  A    between atoms: _607  and  _608
REMARK  241  A    between atoms: _607  and  _610
REMARK  242  A    between atoms: _613  and  _615
REMARK  243  A    between atoms: _615  and  _616
REMARK  244  A    between atoms: _615  and  _618
REMARK  245  A    between atoms: _618  and  _619
REMARK  246  A    between atoms: _624  and  _626
REMARK  247  A    between atoms: _626  and  _627
REMARK  248  A    between atoms: _626  and  _629
REMARK  249  A    between atoms: _629  and  _630
REMARK  250  A    between atoms: _640  and  _642
REMARK  251  A    between atoms: _642  and  _643
REMARK  252  A    between atoms: _642  and  _645
REMARK  253  A    between atoms: _645  and  _646
REMARK  254  A    between atoms: _646  and  _647
REMARK  255  A    between atoms: _649  and  _651
REMARK  256  A    between atoms: _651  and  _652
REMARK  257  A    between atoms: _651  and  _654
REMARK  258  A    between atoms: _654  and  _655
REMARK  259  A    between atoms: _658  and  _660
REMARK  260  A    between atoms: _660  and  _661
REMARK  261  A    between atoms: _660  and  _663
REMARK  262  A    between atoms: _663  and  _664
REMARK  263  A    between atoms: _669  and  _671
REMARK  264  A    between atoms: _671  and  _672
REMARK  265  A    between atoms: _674  and  _676
REMARK  266  A    between atoms: _676  and  _677
REMARK  267  A    between atoms: _676  and  _679
REMARK  268  A    between atoms: _679  and  _680
REMARK  269  A    between atoms: _685  and  _686
REMARK  270  A    between atoms: _688  and  _690
REMARK  271  A    between atoms: _690  and  _691
REMARK  272  A    between atoms: _690  and  _693
REMARK  273  A    between atoms: _693  and  _694
REMARK  274  A    between atoms: _694  and  _695
REMARK  275  A    between atoms: _698  and  _700
REMARK  276  A    between atoms: _700  and  _701
REMARK  277  A    between atoms: _700  and  _703
REMARK  278  A    between atoms: _703  and  _704
REMARK                            x       y       z     vdW  Elec       q    Type
REMARK                         _______ _______ _______ _____ _____    ______ ____
ROOT
ATOM      1  CA  PHE A   5       6.890  57.841  67.889  0.00  0.00    +0.153 C 
ENDROOT
BRANCH   1   2
ATOM      2  C   PHE A   5       6.221  56.673  67.135  0.00  0.00    +0.241 C 
ATOM      3  N   ARG A   6       5.065  56.257  67.635  0.00  0.00    -0.297 N 
ATOM      4  H   ARG A   6       4.693  56.714  68.492  0.00  0.00    +0.150 HD
ATOM      5  O   PHE A   5       6.749  56.137  66.151  0.00  0.00    -0.273 OA
BRANCH   3   6
ATOM      6  CA  ARG A   6       4.294  55.170  67.015  0.00  0.00    +0.149 C 
BRANCH   6   7
ATOM      7  C   ARG A   6       2.827  55.677  67.057  0.00  0.00    +0.241 C 
ATOM      8  O   ARG A   6       2.347  56.183  68.083  0.00  0.00    -0.273 OA
ATOM      9  N   PHE A   7       2.151  55.553  65.925  0.00  0.00    -0.297 N 
ATOM     10  H   PHE A   7       2.608  55.089  65.114  0.00  0.00    +0.150 HD
BRANCH   9  11
ATOM     11  CA  PHE A   7       0.795  56.044  65.780  0.00  0.00    +0.153 C 
BRANCH  11  12
ATOM     12  C   PHE A   7      -0.146  54.901  65.440  0.00  0.00    +0.241 C 
ATOM     13  N   SER A   8      -1.377  55.014  65.889  0.00  0.00    -0.296 N 
ATOM     14  H   SER A   8      -1.686  55.887  66.363  0.00  0.00    +0.150 HD
ATOM     15  O   PHE A   7       0.230  53.939  64.768  0.00  0.00    -0.273 OA
BRANCH  13  16
ATOM     16  CA  SER A   8      -2.312  53.893  65.713  0.00  0.00    +0.166 C 
BRANCH  16  17
ATOM     17  C   SER A   8      -2.749  53.459  64.312  0.00  0.00    +0.229 C 
ATOM     18  O   SER A   8      -2.618  52.298  63.951  0.00  0.00    -0.286 OA
ENDBRANCH  16  17
BRANCH  16  19
ATOM     19  CB  SER A   8      -3.563  54.143  66.573  0.00  0.00    +0.165 C 
BRANCH  19  20
ATOM     20  OG  SER A   8      -3.175  54.013  67.926  0.00  0.00    -0.380 OA
ATOM     21  H   SER A   8      -3.960  54.168  68.509  0.00  0.00    +0.211 HD
ENDBRANCH  19  20
ENDBRANCH  16  19
ENDBRANCH  13  16
ENDBRANCH  11  12
BRANCH  11  22
ATOM     22  CB  PHE A   7       0.824  57.137  64.706  0.00  0.00    +0.055 C 
BRANCH  22  23
ATOM     23  CG  PHE A   7       1.979  58.096  64.895  0.00  0.00    -0.020 A 
ATOM     24  CD2 PHE A   7       2.086  58.834  66.059  0.00  0.00    -0.004 A 
ATOM     25  CE2 PHE A   7       3.242  59.650  66.288  0.00  0.00    -0.000 A 
ATOM     26  CZ  PHE A   7       4.257  59.714  65.329  0.00  0.00    -0.000 A 
ATOM     27  CE1 PHE A   7       4.135  58.973  64.158  0.00  0.00    -0.000 A 
ATOM     28  CD1 PHE A   7       3.013  58.177  63.945  0.00  0.00    -0.004 A 
ENDBRANCH  22  23
ENDBRANCH  11  22
ENDBRANCH   9  11
ENDBRANCH   6   7
BRANCH   6  29
ATOM     29  CB  ARG A   6       4.465  53.833  67.783  0.00  0.00    +0.033 C 
BRANCH  29  30
ATOM     30  CG  ARG A   6       5.819  53.218  67.677  0.00  0.00    +0.045 C 
BRANCH  30  31
ATOM     31  CD  ARG A   6       6.157  52.824  66.243  0.00  0.00    +0.174 C 
BRANCH  31  32
ATOM     32  NE  ARG A   6       7.447  52.128  66.192  0.00  0.00    -0.265 N 
ATOM     33  HE  ARG A   6       7.442  51.091  66.276  0.00  0.00    +0.259 HD
ATOM     34  CZ  ARG A   6       8.626  52.735  66.045  0.00  0.00    +0.342 C 
ATOM     35  NH2 ARG A   6       9.751  52.031  65.963  0.00  0.00    -0.292 N 
ATOM     36 HH21 ARG A   6       9.720  50.993  66.013  0.00  0.00    +0.255 HD
ATOM     37 HH22 ARG A   6      10.662  52.519  65.849  0.00  0.00    +0.255 HD
ATOM     38  NH1 ARG A   6       8.684  54.045  65.938  0.00  0.00    -0.292 N 
ATOM     39 HH11 ARG A   6       7.810  54.608  65.968  0.00  0.00    +0.255 HD
ATOM     40 HH12 ARG A   6       9.604  54.517  65.823  0.00  0.00    +0.255 HD
ENDBRANCH  31  32
ENDBRANCH  30  31
ENDBRANCH  29  30
ENDBRANCH   6  29
ENDBRANCH   3   6
ENDBRANCH   1   2
BRANCH   1  43
ATOM     41  C   ILE A   4       7.336  56.716  70.019  0.00  0.00    +0.241 C 
ATOM     42  O   ILE A   4       7.929  55.765  69.452  0.00  0.00    -0.273 OA
ATOM     43  N   PHE A   5       6.769  57.718  69.352  0.00  0.00    -0.297 N 
ATOM     44  H   PHE A   5       6.226  58.433  69.877  0.00  0.00    +0.150 HD
BRANCH  41  45
ATOM     45  CA  ILE A   4       7.134  56.712  71.539  0.00  0.00    +0.149 C 
BRANCH  45  48
ATOM     46  C   SER A   3       6.087  54.839  72.708  0.00  0.00    +0.243 C 
ATOM     47  O   SER A   3       5.187  55.503  73.187  0.00  0.00    -0.273 OA
ATOM     48  N   ILE A   4       7.032  55.318  71.932  0.00  0.00    -0.297 N 
ATOM     49  H   ILE A   4       7.752  54.657  71.577  0.00  0.00    +0.150 HD
BRANCH  46  50
ATOM     50  CA  SER A   3       6.177  53.364  72.927  0.00  0.00    +0.178 C 
BRANCH  50  53
ATOM     51  C   ASP A   2       5.484  51.750  74.488  0.00  0.00    +0.241 C 
ATOM     52  O   ASP A   2       6.570  51.201  74.296  0.00  0.00    -0.273 OA
ATOM     53  N   SER A   3       5.215  52.892  73.892  0.00  0.00    -0.295 N 
ATOM     54  H   SER A   3       4.350  53.428  74.107  0.00  0.00    +0.150 HD
BRANCH  51  55
ATOM     55  CA  ASP A   2       4.410  51.108  75.426  0.00  0.00    +0.160 C 
BRANCH  55  57
ATOM     56  C   PHE A   1       3.554  49.824  73.506  0.00  0.00    +0.239 C 
ATOM     57  N   ASP A   2       4.177  49.858  74.681  0.00  0.00    -0.297 N 
ATOM     58  H   ASP A   2       4.514  48.964  75.091  0.00  0.00    +0.150 HD
ATOM     59  O   PHE A   1       3.077  50.817  72.966  0.00  0.00    -0.274 OA
BRANCH  56  60
ATOM     60  CA  PHE A   1       3.518  48.467  72.818  0.00  0.00    +0.149 C 
BRANCH  60  61
ATOM     61  N   PHE A   1       2.477  48.355  71.804  0.00  0.00    -0.238 NA
ATOM     62  H   PHE A   1       2.393  49.076  71.060  0.00  0.00    +0.142 HD
ENDBRANCH  60  61
BRANCH  60  63
ATOM     63  CB  PHE A   1       4.897  48.309  72.172  0.00  0.00    +0.053 C 
BRANCH  63  64
ATOM     64  CG  PHE A   1       5.000  47.168  71.220  0.00  0.00    -0.020 A 
ATOM     65  CD2 PHE A   1       5.010  45.857  71.689  0.00  0.00    -0.004 A 
ATOM     66  CE2 PHE A   1       5.117  44.768  70.797  0.00  0.00    -0.000 A 
ATOM     67  CZ  PHE A   1       5.208  45.008  69.429  0.00  0.00    -0.000 A 
ATOM     68  CE1 PHE A   1       5.200  46.340  68.951  0.00  0.00    -0.000 A 
ATOM     69  CD1 PHE A   1       5.093  47.402  69.849  0.00  0.00    -0.004 A 
ENDBRANCH  63  64
ENDBRANCH  60  63
ENDBRANCH  56  60
ENDBRANCH  55  57
BRANCH  55  70
ATOM     70  CB  ASP A   2       5.009  50.748  76.789  0.00  0.00    +0.143 C 
BRANCH  70  71
ATOM     71  CG  ASP A   2       5.109  51.946  77.718  0.00  0.00    +0.367 C 
ATOM     72  OD2 ASP A   2       5.596  51.764  78.864  0.00  0.00    -0.246 OA
ATOM     73  OD1 ASP A   2       4.702  53.060  77.311  0.00  0.00    -0.246 OA
ENDBRANCH  70  71
ENDBRANCH  55  70
ENDBRANCH  51  55
ENDBRANCH  50  53
BRANCH  50  74
ATOM     74  CB  SER A   3       5.911  52.689  71.582  0.00  0.00    +0.166 C 
BRANCH  74  75
ATOM     75  OG  SER A   3       4.633  53.097  71.140  0.00  0.00    -0.380 OA
ATOM     76  H   SER A   3       4.619  54.082  71.040  0.00  0.00    +0.211 HD
ENDBRANCH  74  75
ENDBRANCH  50  74
ENDBRANCH  46  50
ENDBRANCH  45  48
BRANCH  45  77
ATOM     77  CB  ILE A   4       8.268  57.348  72.407  0.00  0.00    +0.027 C 
ATOM     78  CG2 ILE A   4       9.600  57.509  71.790  0.00  0.00    +0.002 C 
BRANCH  77  79
ATOM     79  CG1 ILE A   4       7.679  58.558  73.029  0.00  0.00    +0.002 C 
ATOM     80  CD1 ILE A   4       6.921  58.108  74.152  0.00  0.00    +0.000 C 
ENDBRANCH  77  79
ENDBRANCH  45  77
ENDBRANCH  41  45
ENDBRANCH   1  43
BRANCH   1  81
ATOM     81  CB  PHE A   5       8.356  57.937  67.459  0.00  0.00    +0.055 C 
BRANCH  81  82
ATOM     82  CG  PHE A   5       8.593  58.939  66.357  0.00  0.00    -0.020 A 
ATOM     83  CD2 PHE A   5       9.602  59.889  66.458  0.00  0.00    -0.004 A 
ATOM     84  CE2 PHE A   5       9.840  60.808  65.416  0.00  0.00    -0.000 A 
ATOM     85  CZ  PHE A   5       9.062  60.778  64.275  0.00  0.00    -0.000 A 
ATOM     86  CE1 PHE A   5       8.054  59.838  64.178  0.00  0.00    -0.000 A 
ATOM     87  CD1 PHE A   5       7.823  58.928  65.213  0.00  0.00    -0.004 A 
ENDBRANCH  81  82
ENDBRANCH   1  81
TORSDOF 34
REMARK  Name = ../refined-set-2016/1h23/1h23_pocket.pdb
REMARK  278 active torsions:
REMARK  status: ('A' for Active; 'I' for Inactive)
REMARK    1  A    between atoms: _1  and  _3
REMARK    2  A    between atoms: _3  and  _4
REMARK    3  A    between atoms: _3  and  _6
REMARK    4  A    between atoms: _6  and  _7
REMARK    5  A    between atoms: _7  and  _8
REMARK    6  A    between atoms: _13  and  _15
REMARK    7  A    between atoms: _15  and  _16
REMARK    8  A    between atoms: _15  and  _18
REMARK    9  A    between atoms: _18  and  _19
REMARK   10  A    between atoms: _24  and  _25
REMARK   11  A    between atoms: _27  and  _29
REMARK   12  A    between atoms: _29  and  _30
REMARK   13  A    between atoms: _29  and  _32
REMARK   14  A    between atoms: _35  and  _37
REMARK   15  A    between atoms: _37  and  _38
REMARK   16  A    between atoms: _37  and  _40
REMARK   17  A    between atoms: _40  and  _41
REMARK   18  A    between atoms: _44  and  _46
REMARK   19  A    between atoms: _46  and  _47
REMARK   20  A    between atoms: _46  and  _49
REMARK   21  A    between atoms: _49  and  _50
REMARK   22  A    between atoms: _50  and  _51
REMARK   23  A    between atoms: _54  and  _56
REMARK   24  A    between atoms: _56  and  _57
REMARK   25  A    between atoms: _56  and  _59
REMARK   26  A    between atoms: _59  and  _60
REMARK   27  A    between atoms: _60  and  _61
REMARK   28  A    between atoms: _66  and  _68
REMARK   29  A    between atoms: _68  and  _69
REMARK   30  A    between atoms: _68  and  _71
REMARK   31  A    between atoms: _71  and  _72
REMARK   32  A    between atoms: _78  and  _80
REMARK   33  A    between atoms: _80  and  _81
REMARK   34  A    between atoms: _83  and  _85
REMARK   35  A    between atoms: _85  and  _86
REMARK   36  A    between atoms: _85  and  _88
REMARK   37  A    between atoms: _88  and  _89
REMARK   38  A    between atoms: _91  and  _93
REMARK   39  A    between atoms: _93  and  _94
REMARK   40  A    between atoms: _93  and  _96
REMARK   41  A    between atoms: _96  and  _97
REMARK   42  A    between atoms: _97  and  _98
REMARK   43  A    between atoms: _100  and  _102
REMARK   44  A    between atoms: _102  and  _103
REMARK   45  A    between atoms: _102  and  _105
REMARK   46  A    between atoms: _105  and  _106
REMARK   47  A    between atoms: _116  and  _118
REMARK   48  A    between atoms: _118  and  _119
REMARK   49  A    between atoms: _118  and  _121
REMARK   50  A    between atoms: _121  and  _122
REMARK   51  A    between atoms: _128  and  _129
REMARK   52  A    between atoms: _134  and  _136
REMARK   53  A    between atoms: _136  and  _137
REMARK   54  A    between atoms: _136  and  _139
REMARK   55  A    between atoms: _139  and  _140
REMARK   56  A    between atoms: _150  and  _152
REMARK   57  A    between atoms: _152  and  _153
REMARK   58  A    between atoms: _152  and  _155
REMARK   59  A    between atoms: _155  and  _156
REMARK   60  A    between atoms: _159  and  _161
REMARK   61  A    between atoms: _161  and  _162
REMARK   62  A    between atoms: _161  and  _164
REMARK   63  A    between atoms: _164  and  _165
REMARK   64  A    between atoms: _170  and  _171
REMARK   65  A    between atoms: _173  and  _175
REMARK   66  A    between atoms: _175  and  _176
REMARK   67  A    between atoms: _178  and  _180
REMARK   68  A    between atoms: _180  and  _181
REMARK   69  A    between atoms: _183  and  _185
REMARK   70  A    between atoms: _185  and  _186
REMARK   71  A    between atoms: _188  and  _190
REMARK   72  A    between atoms: _190  and  _191
REMARK   73  A    between atoms: _190  and  _193
REMARK   74  A    between atoms: _193  and  _194
REMARK   75  A    between atoms: _200  and  _202
REMARK   76  A    between atoms: _202  and  _203
REMARK   77  A    between atoms: _202  and  _205
REMARK   78  A    between atoms: _205  and  _206
REMARK   79  A    between atoms: _211  and  _212
REMARK   80  A    between atoms: _214  and  _216
REMARK   81  A    between atoms: _216  and  _217
REMARK   82  A    between atoms: _216  and  _219
REMARK   83  A    between atoms: _219  and  _220
REMARK   84  A    between atoms: _222  and  _224
REMARK   85  A    between atoms: _224  and  _225
REMARK   86  A    between atoms: _227  and  _229
REMARK   87  A    between atoms: _229  and  _230
REMARK   88  A    between atoms: _229  and  _232
REMARK   89  A    between atoms: _232  and  _233
REMARK   90  A    between atoms: _235  and  _237
REMARK   91  A    between atoms: _237  and  _238
REMARK   92  A    between atoms: _237  and  _240
REMARK   93  A    between atoms: _240  and  _241
REMARK   94  A    between atoms: _243  and  _245
REMARK   95  A    between atoms: _245  and  _246
REMARK   96  A    between atoms: _245  and  _248
REMARK   97  A    between atoms: _248  and  _249
REMARK   98  A    between atoms: _252  and  _254
REMARK   99  A    between atoms: _254  and  _255
REMARK  100  A    between atoms: _254  and  _257
REMARK  101  A    between atoms: _257  and  _258
REMARK  102  A    between atoms: _261  and  _263
REMARK  103  A    between atoms: _263  and  _264
REMARK  104  A    between atoms: _263  and  _266
REMARK  105  A    between atoms: _269  and  _271
REMARK  106  A    between atoms: _271  and  _272
REMARK  107  A    between atoms: _271  and  _274
REMARK  108  A    between atoms: _274  and  _275
REMARK  109  A    between atoms: _280  and  _281
REMARK  110  A    between atoms: _283  and  _285
REMARK  111  A    between atoms: _285  and  _286
REMARK  112  A    between atoms: _285  and  _288
REMARK  113  A    between atoms: _288  and  _289
REMARK  114  A    between atoms: _294  and  _295
REMARK  115  A    between atoms: _297  and  _299
REMARK  116  A    between atoms: _299  and  _300
REMARK  117  A    between atoms: _299  and  _302
REMARK  118  A    between atoms: _305  and  _307
REMARK  119  A    between atoms: _307  and  _308
REMARK  120  A    between atoms: _307  and  _310
REMARK  121  A    between atoms: _310  and  _311
REMARK  122  A    between atoms: _311  and  _312
REMARK  123  A    between atoms: _315  and  _317
REMARK  124  A    between atoms: _317  and  _318
REMARK  125  A    between atoms: _317  and  _320
REMARK  126  A    between atoms: _320  and  _321
REMARK  127  A    between atoms: _323  and  _325
REMARK  128  A    between atoms: _325  and  _326
REMARK  129  A    between atoms: _329  and  _331
REMARK  130  A    between atoms: _331  and  _332
REMARK  131  A    between atoms: _334  and  _336
REMARK  132  A    between atoms: _336  and  _337
REMARK  133  A    between atoms: _336  and  _339
REMARK  134  A    between atoms: _339  and  _340
REMARK  135  A    between atoms: _340  and  _341
REMARK  136  A    between atoms: _346  and  _348
REMARK  137  A    between atoms: _348  and  _349
REMARK  138  A    between atoms: _348  and  _351
REMARK  139  A    between atoms: _351  and  _352
REMARK  140  A    between atoms: _354  and  _356
REMARK  141  A    between atoms: _356  and  _357
REMARK  142  A    between atoms: _356  and  _359
REMARK  143  A    between atoms: _359  and  _360
REMARK  144  A    between atoms: _360  and  _361
REMARK  145  A    between atoms: _364  and  _366
REMARK  146  A    between atoms: _366  and  _367
REMARK  147  A    between atoms: _366  and  _369
REMARK  148  A    between atoms: _369  and  _370
REMARK  149  A    between atoms: _380  and  _382
REMARK  150  A    between atoms: _382  and  _383
REMARK  151  A    between atoms: _382  and  _385
REMARK  152  A    between atoms: _385  and  _386
REMARK  153  A    between atoms: _391  and  _393
REMARK  154  A    between atoms: _393  and  _394
REMARK  155  A    between atoms: _393  and  _396
REMARK  156  A    between atoms: _396  and  _397
REMARK  157  A    between atoms: _400  and  _402
REMARK  158  A    between atoms: _402  and  _403
REMARK  159  A    between atoms: _402  and  _405
REMARK  160  A    between atoms: _405  and  _406
REMARK  161  A    between atoms: _412  and  _414
REMARK  162  A    between atoms: _414  and  _415
REMARK  163  A    between atoms: _414  and  _417
REMARK  164  A    between atoms: _417  and  _418
REMARK  165  A    between atoms: _421  and  _423
REMARK  166  A    between atoms: _423  and  _424
REMARK  167  A    between atoms: _423  and  _426
REMARK  168  A    between atoms: _426  and  _427
REMARK  169  A    between atoms: _429  and  _431
REMARK  170  A    between atoms: _431  and  _432
REMARK  171  A    between atoms: _431  and  _434
REMARK  172  A    between atoms: _434  and  _435
REMARK  173  A    between atoms: _438  and  _440
REMARK  174  A    between atoms: _440  and  _441
REMARK  175  A    between atoms: _440  and  _443
REMARK  176  A    between atoms: _443  and  _444
REMARK  177  A    between atoms: _450  and  _452
REMARK  178  A    between atoms: _452  and  _453
REMARK  179  A    between atoms: _452  and  _455
REMARK  180  A    between atoms: _455  and  _456
REMARK  181  A    between atoms: _456  and  _457
REMARK  182  A    between atoms: _457  and  _458
REMARK  183  A    between atoms: _467  and  _469
REMARK  184  A    between atoms: _469  and  _470
REMARK  185  A    between atoms: _469  and  _472
REMARK  186  A    between atoms: _472  and  _473
REMARK  187  A    between atoms: _479  and  _481
REMARK  188  A    between atoms: _481  and  _482
REMARK  189  A    between atoms: _481  and  _484
REMARK  190  A    between atoms: _484  and  _485
REMARK  191  A    between atoms: _487  and  _489
REMARK  192  A    between atoms: _489  and  _490
REMARK  193  A    between atoms: _489  and  _492
REMARK  194  A    between atoms: _492  and  _493
REMARK  195  A    between atoms: _498  and  _500
REMARK  196  A    between atoms: _500  and  _501
REMARK  197  A    between atoms: _500  and  _503
REMARK  198  A    between atoms: _503  and  _504
REMARK  199  A    between atoms: _504  and  _505
REMARK  200  A    between atoms: _508  and  _510
REMARK  201  A    between atoms: _510  and  _511
REMARK  202  A    between atoms: _513  and  _515
REMARK  203  A    between atoms: _515  and  _516
REMARK  204  A    between atoms: _515  and  _518
REMARK  205  A    between atoms: _518  and  _519
REMARK  206  A    between atoms: _521  and  _523
REMARK  207  A    between atoms: _523  and  _524
REMARK  208  A    between atoms: _523  and  _526
REMARK  209  A    between atoms: _526  and  _527
REMARK  210  A    between atoms: _533  and  _535
REMARK  211  A    between atoms: _535  and  _536
REMARK  212  A    between atoms: _535  and  _538
REMARK  213  A    between atoms: _538  and  _539
REMARK  214  A    between atoms: _545  and  _547
REMARK  215  A    between atoms: _547  and  _548
REMARK  216  A    between atoms: _547  and  _550
REMARK  217  A    between atoms: _550  and  _551
REMARK  218  A    between atoms: _554  and  _556
REMARK  219  A    between atoms: _556  and  _557
REMARK  220  A    between atoms: _556  and  _559
REMARK  221  A    between atoms: _559  and  _560
REMARK  222  A    between atoms: _563  and  _565
REMARK  223  A    between atoms: _565  and  _566
REMARK  224  A    between atoms: _565  and  _568
REMARK  225  A    between atoms: _568  and  _569
REMARK  226  A    between atoms: _574  and  _575
REMARK  227  A    between atoms: _577  and  _579
REMARK  228  A    between atoms: _579  and  _580
REMARK  229  A    between atoms: _582  and  _584
REMARK  230  A    between atoms: _584  and  _585
REMARK  231  A    between atoms: _588  and  _590
REMARK  232  A    between atoms: _590  and  _591
REMARK  233  A    between atoms: _590  and  _593
REMARK  234  A    between atoms: _593  and  _594
REMARK  235  A    between atoms: _597  and  _599
REMARK  236  A    between atoms: _599  and  _600
REMARK  237  A    between atoms: _599  and  _602
REMARK  238  A    between atoms: _602  and  _603
REMARK  239  A    between atoms: _605  and  _607
REMARK  240  A    between atoms: _607  and  _608
REMARK  241  A    between atoms: _607  and  _610
REMARK  242  A    between atoms: _613  and  _615
REMARK  243  A    between atoms: _615  and  _616
REMARK  244  A    between atoms: _615  and  _618
REMARK  245  A    between atoms: _618  and  _619
REMARK  246  A    between atoms: _624  and  _626
REMARK  247  A    between atoms: _626  and  _627
REMARK  248  A    between atoms: _626  and  _629
REMARK  249  A    between atoms: _629  and  _630
REMARK  250  A    between atoms: _640  and  _642
REMARK  251  A    between atoms: _642  and  _643
REMARK  252  A    between atoms: _642  and  _645
REMARK  253  A    between atoms: _645  and  _646
REMARK  254  A    between atoms: _646  and  _647
REMARK  255  A    between atoms: _649  and  _651
REMARK  256  A    between atoms: _651  and  _652
REMARK  257  A    between atoms: _651  and  _654
REMARK  258  A    between atoms: _654  and  _655
REMARK  259  A    between atoms: _658  and  _660
REMARK  260  A    between atoms: _660  and  _661
REMARK  261  A    between atoms: _660  and  _663
REMARK  262  A    between atoms: _663  and  _664
REMARK  263  A    between atoms: _669  and  _671
REMARK  264  A    between atoms: _671  and  _672
REMARK  265  A    between atoms: _674  and  _676
REMARK  266  A    between atoms: _676  and  _677
REMARK  267  A    between atoms: _676  and  _679
REMARK  268  A    between atoms: _679  and  _680
REMARK  269  A    between atoms: _685  and  _686
REMARK  270  A    between atoms: _688  and  _690
REMARK  271  A    between atoms: _690  and  _691
REMARK  272  A    between atoms: _690  and  _693
REMARK  273  A    between atoms: _693  and  _694
REMARK  274  A    between atoms: _694  and  _695
REMARK  275  A    between atoms: _698  and  _700
REMARK  276  A    between atoms: _700  and  _701
REMARK  277  A    between atoms: _700  and  _703
REMARK  278  A    between atoms: _703  and  _704
REMARK                            x       y       z     vdW  Elec       q    Type
REMARK                         _______ _______ _______ _____ _____    ______ ____
ROOT
ATOM      1  CB  ASN A   1      15.345  69.097  61.654  0.00  0.00    +0.110 C 
ENDROOT
BRANCH   1   2
ATOM      2  CG  ASN A   1      14.395  69.804  60.661  0.00  0.00    +0.221 C 
ATOM      3  ND2 ASN A   1      13.271  70.284  61.178  0.00  0.00    -0.329 N 
ATOM      4 HD21 ASN A   1      13.070  70.160  62.191  0.00  0.00    +0.145 HD
ATOM      5 HD22 ASN A   1      12.591  70.785  60.570  0.00  0.00    +0.145 HD
ATOM      6  OD1 ASN A   1      14.686  69.928  59.441  0.00  0.00    -0.275 OA
ENDBRANCH   1   2
BRANCH   1   7
ATOM      7  CA  ASN A   1      16.553  68.475  60.958  0.00  0.00    +0.142 C 
BRANCH   7   8
ATOM      8  N   ASN A   1      16.143  67.443  60.011  0.00  0.00    -0.239 NA
ATOM      9  H   ASN A   1      15.417  66.755  60.294  0.00  0.00    +0.142 HD
ENDBRANCH   7   8
BRANCH   7  10
ATOM     10  C   ASN A   1      17.495  67.835  62.004  0.00  0.00    +0.225 C 
ATOM     11  O   ASN A   1      17.485  66.596  62.208  0.00  0.00    -0.287 OA
ENDBRANCH   7  10
ENDBRANCH   1   7
TORSDOF 4
REMARK  Name = ../refined-set-2016/1h23/1h23_pocket.pdb
REMARK  278 active torsions:
REMARK  status: ('A' for Active; 'I' for Inactive)
REMARK    1  A    between atoms: _1  and  _3
REMARK    2  A    between atoms: _3  and  _4
REMARK    3  A    between atoms: _3  and  _6
REMARK    4  A    between atoms: _6  and  _7
REMARK    5  A    between atoms: _7  and  _8
REMARK    6  A    between atoms: _13  and  _15
REMARK    7  A    between atoms: _15  and  _16
REMARK    8  A    between atoms: _15  and  _18
REMARK    9  A    between atoms: _18  and  _19
REMARK   10  A    between atoms: _24  and  _25
REMARK   11  A    between atoms: _27  and  _29
REMARK   12  A    between atoms: _29  and  _30
REMARK   13  A    between atoms: _29  and  _32
REMARK   14  A    between atoms: _35  and  _37
REMARK   15  A    between atoms: _37  and  _38
REMARK   16  A    between atoms: _37  and  _40
REMARK   17  A    between atoms: _40  and  _41
REMARK   18  A    between atoms: _44  and  _46
REMARK   19  A    between atoms: _46  and  _47
REMARK   20  A    between atoms: _46  and  _49
REMARK   21  A    between atoms: _49  and  _50
REMARK   22  A    between atoms: _50  and  _51
REMARK   23  A    between atoms: _54  and  _56
REMARK   24  A    between atoms: _56  and  _57
REMARK   25  A    between atoms: _56  and  _59
REMARK   26  A    between atoms: _59  and  _60
REMARK   27  A    between atoms: _60  and  _61
REMARK   28  A    between atoms: _66  and  _68
REMARK   29  A    between atoms: _68  and  _69
REMARK   30  A    between atoms: _68  and  _71
REMARK   31  A    between atoms: _71  and  _72
REMARK   32  A    between atoms: _78  and  _80
REMARK   33  A    between atoms: _80  and  _81
REMARK   34  A    between atoms: _83  and  _85
REMARK   35  A    between atoms: _85  and  _86
REMARK   36  A    between atoms: _85  and  _88
REMARK   37  A    between atoms: _88  and  _89
REMARK   38  A    between atoms: _91  and  _93
REMARK   39  A    between atoms: _93  and  _94
REMARK   40  A    between atoms: _93  and  _96
REMARK   41  A    between atoms: _96  and  _97
REMARK   42  A    between atoms: _97  and  _98
REMARK   43  A    between atoms: _100  and  _102
REMARK   44  A    between atoms: _102  and  _103
REMARK   45  A    between atoms: _102  and  _105
REMARK   46  A    between atoms: _105  and  _106
REMARK   47  A    between atoms: _116  and  _118
REMARK   48  A    between atoms: _118  and  _119
REMARK   49  A    between atoms: _118  and  _121
REMARK   50  A    between atoms: _121  and  _122
REMARK   51  A    between atoms: _128  and  _129
REMARK   52  A    between atoms: _134  and  _136
REMARK   53  A    between atoms: _136  and  _137
REMARK   54  A    between atoms: _136  and  _139
REMARK   55  A    between atoms: _139  and  _140
REMARK   56  A    between atoms: _150  and  _152
REMARK   57  A    between atoms: _152  and  _153
REMARK   58  A    between atoms: _152  and  _155
REMARK   59  A    between atoms: _155  and  _156
REMARK   60  A    between atoms: _159  and  _161
REMARK   61  A    between atoms: _161  and  _162
REMARK   62  A    between atoms: _161  and  _164
REMARK   63  A    between atoms: _164  and  _165
REMARK   64  A    between atoms: _170  and  _171
REMARK   65  A    between atoms: _173  and  _175
REMARK   66  A    between atoms: _175  and  _176
REMARK   67  A    between atoms: _178  and  _180
REMARK   68  A    between atoms: _180  and  _181
REMARK   69  A    between atoms: _183  and  _185
REMARK   70  A    between atoms: _185  and  _186
REMARK   71  A    between atoms: _188  and  _190
REMARK   72  A    between atoms: _190  and  _191
REMARK   73  A    between atoms: _190  and  _193
REMARK   74  A    between atoms: _193  and  _194
REMARK   75  A    between atoms: _200  and  _202
REMARK   76  A    between atoms: _202  and  _203
REMARK   77  A    between atoms: _202  and  _205
REMARK   78  A    between atoms: _205  and  _206
REMARK   79  A    between atoms: _211  and  _212
REMARK   80  A    between atoms: _214  and  _216
REMARK   81  A    between atoms: _216  and  _217
REMARK   82  A    between atoms: _216  and  _219
REMARK   83  A    between atoms: _219  and  _220
REMARK   84  A    between atoms: _222  and  _224
REMARK   85  A    between atoms: _224  and  _225
REMARK   86  A    between atoms: _227  and  _229
REMARK   87  A    between atoms: _229  and  _230
REMARK   88  A    between atoms: _229  and  _232
REMARK   89  A    between atoms: _232  and  _233
REMARK   90  A    between atoms: _235  and  _237
REMARK   91  A    between atoms: _237  and  _238
REMARK   92  A    between atoms: _237  and  _240
REMARK   93  A    between atoms: _240  and  _241
REMARK   94  A    between atoms: _243  and  _245
REMARK   95  A    between atoms: _245  and  _246
REMARK   96  A    between atoms: _245  and  _248
REMARK   97  A    between atoms: _248  and  _249
REMARK   98  A    between atoms: _252  and  _254
REMARK   99  A    between atoms: _254  and  _255
REMARK  100  A    between atoms: _254  and  _257
REMARK  101  A    between atoms: _257  and  _258
REMARK  102  A    between atoms: _261  and  _263
REMARK  103  A    between atoms: _263  and  _264
REMARK  104  A    between atoms: _263  and  _266
REMARK  105  A    between atoms: _269  and  _271
REMARK  106  A    between atoms: _271  and  _272
REMARK  107  A    between atoms: _271  and  _274
REMARK  108  A    between atoms: _274  and  _275
REMARK  109  A    between atoms: _280  and  _281
REMARK  110  A    between atoms: _283  and  _285
REMARK  111  A    between atoms: _285  and  _286
REMARK  112  A    between atoms: _285  and  _288
REMARK  113  A    between atoms: _288  and  _289
REMARK  114  A    between atoms: _294  and  _295
REMARK  115  A    between atoms: _297  and  _299
REMARK  116  A    between atoms: _299  and  _300
REMARK  117  A    between atoms: _299  and  _302
REMARK  118  A    between atoms: _305  and  _307
REMARK  119  A    between atoms: _307  and  _308
REMARK  120  A    between atoms: _307  and  _310
REMARK  121  A    between atoms: _310  and  _311
REMARK  122  A    between atoms: _311  and  _312
REMARK  123  A    between atoms: _315  and  _317
REMARK  124  A    between atoms: _317  and  _318
REMARK  125  A    between atoms: _317  and  _320
REMARK  126  A    between atoms: _320  and  _321
REMARK  127  A    between atoms: _323  and  _325
REMARK  128  A    between atoms: _325  and  _326
REMARK  129  A    between atoms: _329  and  _331
REMARK  130  A    between atoms: _331  and  _332
REMARK  131  A    between atoms: _334  and  _336
REMARK  132  A    between atoms: _336  and  _337
REMARK  133  A    between atoms: _336  and  _339
REMARK  134  A    between atoms: _339  and  _340
REMARK  135  A    between atoms: _340  and  _341
REMARK  136  A    between atoms: _346  and  _348
REMARK  137  A    between atoms: _348  and  _349
REMARK  138  A    between atoms: _348  and  _351
REMARK  139  A    between atoms: _351  and  _352
REMARK  140  A    between atoms: _354  and  _356
REMARK  141  A    between atoms: _356  and  _357
REMARK  142  A    between atoms: _356  and  _359
REMARK  143  A    between atoms: _359  and  _360
REMARK  144  A    between atoms: _360  and  _361
REMARK  145  A    between atoms: _364  and  _366
REMARK  146  A    between atoms: _366  and  _367
REMARK  147  A    between atoms: _366  and  _369
REMARK  148  A    between atoms: _369  and  _370
REMARK  149  A    between atoms: _380  and  _382
REMARK  150  A    between atoms: _382  and  _383
REMARK  151  A    between atoms: _382  and  _385
REMARK  152  A    between atoms: _385  and  _386
REMARK  153  A    between atoms: _391  and  _393
REMARK  154  A    between atoms: _393  and  _394
REMARK  155  A    between atoms: _393  and  _396
REMARK  156  A    between atoms: _396  and  _397
REMARK  157  A    between atoms: _400  and  _402
REMARK  158  A    between atoms: _402  and  _403
REMARK  159  A    between atoms: _402  and  _405
REMARK  160  A    between atoms: _405  and  _406
REMARK  161  A    between atoms: _412  and  _414
REMARK  162  A    between atoms: _414  and  _415
REMARK  163  A    between atoms: _414  and  _417
REMARK  164  A    between atoms: _417  and  _418
REMARK  165  A    between atoms: _421  and  _423
REMARK  166  A    between atoms: _423  and  _424
REMARK  167  A    between atoms: _423  and  _426
REMARK  168  A    between atoms: _426  and  _427
REMARK  169  A    between atoms: _429  and  _431
REMARK  170  A    between atoms: _431  and  _432
REMARK  171  A    between atoms: _431  and  _434
REMARK  172  A    between atoms: _434  and  _435
REMARK  173  A    between atoms: _438  and  _440
REMARK  174  A    between atoms: _440  and  _441
REMARK  175  A    between atoms: _440  and  _443
REMARK  176  A    between atoms: _443  and  _444
REMARK  177  A    between atoms: _450  and  _452
REMARK  178  A    between atoms: _452  and  _453
REMARK  179  A    between atoms: _452  and  _455
REMARK  180  A    between atoms: _455  and  _456
REMARK  181  A    between atoms: _456  and  _457
REMARK  182  A    between atoms: _457  and  _458
REMARK  183  A    between atoms: _467  and  _469
REMARK  184  A    between atoms: _469  and  _470
REMARK  185  A    between atoms: _469  and  _472
REMARK  186  A    between atoms: _472  and  _473
REMARK  187  A    between atoms: _479  and  _481
REMARK  188  A    between atoms: _481  and  _482
REMARK  189  A    between atoms: _481  and  _484
REMARK  190  A    between atoms: _484  and  _485
REMARK  191  A    between atoms: _487  and  _489
REMARK  192  A    between atoms: _489  and  _490
REMARK  193  A    between atoms: _489  and  _492
REMARK  194  A    between atoms: _492  and  _493
REMARK  195  A    between atoms: _498  and  _500
REMARK  196  A    between atoms: _500  and  _501
REMARK  197  A    between atoms: _500  and  _503
REMARK  198  A    between atoms: _503  and  _504
REMARK  199  A    between atoms: _504  and  _505
REMARK  200  A    between atoms: _508  and  _510
REMARK  201  A    between atoms: _510  and  _511
REMARK  202  A    between atoms: _513  and  _515
REMARK  203  A    between atoms: _515  and  _516
REMARK  204  A    between atoms: _515  and  _518
REMARK  205  A    between atoms: _518  and  _519
REMARK  206  A    between atoms: _521  and  _523
REMARK  207  A    between atoms: _523  and  _524
REMARK  208  A    between atoms: _523  and  _526
REMARK  209  A    between atoms: _526  and  _527
REMARK  210  A    between atoms: _533  and  _535
REMARK  211  A    between atoms: _535  and  _536
REMARK  212  A    between atoms: _535  and  _538
REMARK  213  A    between atoms: _538  and  _539
REMARK  214  A    between atoms: _545  and  _547
REMARK  215  A    between atoms: _547  and  _548
REMARK  216  A    between atoms: _547  and  _550
REMARK  217  A    between atoms: _550  and  _551
REMARK  218  A    between atoms: _554  and  _556
REMARK  219  A    between atoms: _556  and  _557
REMARK  220  A    between atoms: _556  and  _559
REMARK  221  A    between atoms: _559  and  _560
REMARK  222  A    between atoms: _563  and  _565
REMARK  223  A    between atoms: _565  and  _566
REMARK  224  A    between atoms: _565  and  _568
REMARK  225  A    between atoms: _568  and  _569
REMARK  226  A    between atoms: _574  and  _575
REMARK  227  A    between atoms: _577  and  _579
REMARK  228  A    between atoms: _579  and  _580
REMARK  229  A    between atoms: _582  and  _584
REMARK  230  A    between atoms: _584  and  _585
REMARK  231  A    between atoms: _588  and  _590
REMARK  232  A    between atoms: _590  and  _591
REMARK  233  A    between atoms: _590  and  _593
REMARK  234  A    between atoms: _593  and  _594
REMARK  235  A    between atoms: _597  and  _599
REMARK  236  A    between atoms: _599  and  _600
REMARK  237  A    between atoms: _599  and  _602
REMARK  238  A    between atoms: _602  and  _603
REMARK  239  A    between atoms: _605  and  _607
REMARK  240  A    between atoms: _607  and  _608
REMARK  241  A    between atoms: _607  and  _610
REMARK  242  A    between atoms: _613  and  _615
REMARK  243  A    between atoms: _615  and  _616
REMARK  244  A    between atoms: _615  and  _618
REMARK  245  A    between atoms: _618  and  _619
REMARK  246  A    between atoms: _624  and  _626
REMARK  247  A    between atoms: _626  and  _627
REMARK  248  A    between atoms: _626  and  _629
REMARK  249  A    between atoms: _629  and  _630
REMARK  250  A    between atoms: _640  and  _642
REMARK  251  A    between atoms: _642  and  _643
REMARK  252  A    between atoms: _642  and  _645
REMARK  253  A    between atoms: _645  and  _646
REMARK  254  A    between atoms: _646  and  _647
REMARK  255  A    between atoms: _649  and  _651
REMARK  256  A    between atoms: _651  and  _652
REMARK  257  A    between atoms: _651  and  _654
REMARK  258  A    between atoms: _654  and  _655
REMARK  259  A    between atoms: _658  and  _660
REMARK  260  A    between atoms: _660  and  _661
REMARK  261  A    between atoms: _660  and  _663
REMARK  262  A    between atoms: _663  and  _664
REMARK  263  A    between atoms: _669  and  _671
REMARK  264  A    between atoms: _671  and  _672
REMARK  265  A    between atoms: _674  and  _676
REMARK  266  A    between atoms: _676  and  _677
REMARK  267  A    between atoms: _676  and  _679
REMARK  268  A    between atoms: _679  and  _680
REMARK  269  A    between atoms: _685  and  _686
REMARK  270  A    between atoms: _688  and  _690
REMARK  271  A    between atoms: _690  and  _691
REMARK  272  A    between atoms: _690  and  _693
REMARK  273  A    between atoms: _693  and  _694
REMARK  274  A    between atoms: _694  and  _695
REMARK  275  A    between atoms: _698  and  _700
REMARK  276  A    between atoms: _700  and  _701
REMARK  277  A    between atoms: _700  and  _703
REMARK  278  A    between atoms: _703  and  _704
REMARK                            x       y       z     vdW  Elec       q    Type
REMARK                         _______ _______ _______ _____ _____    ______ ____
ROOT
ATOM      1  CA  PHE A   5       8.477  63.063  71.025  0.00  0.00    +0.153 C 
ENDROOT
BRANCH   1   4
ATOM      2  C   PHE A   4       8.632  65.456  70.953  0.00  0.00    +0.241 C 
ATOM      3  O   PHE A   4       7.789  65.561  71.867  0.00  0.00    -0.273 OA
ATOM      4  N   PHE A   5       9.076  64.278  70.523  0.00  0.00    -0.297 N 
ATOM      5  H   PHE A   5       9.850  64.232  69.830  0.00  0.00    +0.150 HD
BRANCH   2   6
ATOM      6  CA  PHE A   4       9.279  66.696  70.298  0.00  0.00    +0.153 C 
BRANCH   6   9
ATOM      7  C   SER A   3      11.450  66.204  71.247  0.00  0.00    +0.243 C 
ATOM      8  O   SER A   3      10.973  66.075  72.405  0.00  0.00    -0.273 OA
ATOM      9  N   PHE A   4      10.703  66.471  70.188  0.00  0.00    -0.297 N 
ATOM     10  H   PHE A   4      11.152  66.520  69.251  0.00  0.00    +0.150 HD
BRANCH   7  11
ATOM     11  CA  SER A   3      12.953  66.022  70.979  0.00  0.00    +0.178 C 
BRANCH  11  14
ATOM     12  C   GLY A   2      12.935  64.102  69.547  0.00  0.00    +0.243 C 
ATOM     13  O   GLY A   2      12.104  63.562  70.288  0.00  0.00    -0.273 OA
ATOM     14  N   SER A   3      13.356  65.353  69.753  0.00  0.00    -0.295 N 
ATOM     15  H   SER A   3      13.956  65.836  69.054  0.00  0.00    +0.150 HD
BRANCH  12  16
ATOM     16  CA  GLY A   2      13.455  63.321  68.341  0.00  0.00    +0.176 C 
BRANCH  16  18
ATOM     17  C   GLU A   1      13.387  64.597  66.338  0.00  0.00    +0.238 C 
ATOM     18  N   GLY A   2      14.136  64.002  67.263  0.00  0.00    -0.296 N 
ATOM     19  H   GLY A   2      15.174  64.026  67.212  0.00  0.00    +0.150 HD
ATOM     20  O   GLU A   1      12.149  64.671  66.443  0.00  0.00    -0.274 OA
BRANCH  17  21
ATOM     21  CA  GLU A   1      14.078  65.236  65.151  0.00  0.00    +0.145 C 
BRANCH  21  22
ATOM     22  N   GLU A   1      15.387  65.778  65.475  0.00  0.00    -0.238 NA
ATOM     23  H   GLU A   1      16.225  65.415  64.977  0.00  0.00    +0.142 HD
ENDBRANCH  21  22
BRANCH  21  24
ATOM     24  CB  GLU A   1      14.165  64.200  64.023  0.00  0.00    +0.038 C 
BRANCH  24  25
ATOM     25  CG  GLU A   1      14.793  64.673  62.701  0.00  0.00    +0.116 C 
BRANCH  25  26
ATOM     26  CD  GLU A   1      13.857  65.526  61.854  0.00  0.00    +0.365 C 
ATOM     27  OE2 GLU A   1      12.742  65.846  62.315  0.00  0.00    -0.246 OA
ATOM     28  OE1 GLU A   1      14.226  65.876  60.711  0.00  0.00    -0.246 OA
ENDBRANCH  25  26
ENDBRANCH  24  25
ENDBRANCH  21  24
ENDBRANCH  17  21
ENDBRANCH  16  18
ENDBRANCH  12  16
ENDBRANCH  11  14
BRANCH  11  29
ATOM     29  CB  SER A   3      13.691  67.348  71.089  0.00  0.00    +0.166 C 
BRANCH  29  30
ATOM     30  OG  SER A   3      13.362  68.235  70.049  0.00  0.00    -0.380 OA
ATOM     31  H   SER A   3      13.866  69.079  70.165  0.00  0.00    +0.211 HD
ENDBRANCH  29  30
ENDBRANCH  11  29
ENDBRANCH   7  11
ENDBRANCH   6   9
BRANCH   6  32
ATOM     32  CB  PHE A   4       8.713  66.896  68.891  0.00  0.00    +0.055 C 
BRANCH  32  33
ATOM     33  CG  PHE A   4       7.650  67.973  68.787  0.00  0.00    -0.020 A 
ATOM     34  CD2 PHE A   4       6.781  68.223  69.841  0.00  0.00    -0.004 A 
ATOM     35  CE2 PHE A   4       5.822  69.237  69.754  0.00  0.00    -0.000 A 
ATOM     36  CZ  PHE A   4       5.734  70.018  68.574  0.00  0.00    -0.000 A 
ATOM     37  CE1 PHE A   4       6.604  69.759  67.521  0.00  0.00    -0.000 A 
ATOM     38  CD1 PHE A   4       7.549  68.746  67.628  0.00  0.00    -0.004 A 
ENDBRANCH  32  33
ENDBRANCH   6  32
ENDBRANCH   2   6
ENDBRANCH   1   4
BRANCH   1  39
ATOM     39  C   PHE A   5       8.885  62.674  72.406  0.00  0.00    +0.241 C 
ATOM     40  O   PHE A   5       8.085  62.047  73.122  0.00  0.00    -0.273 OA
ATOM     41  N   LEU A   6      10.112  63.029  72.792  0.00  0.00    -0.297 N 
ATOM     42  H   LEU A   6      10.730  63.541  72.130  0.00  0.00    +0.150 HD
BRANCH  41  43
ATOM     43  CA  LEU A   6      10.598  62.709  74.130  0.00  0.00    +0.149 C 
BRANCH  43  44
ATOM     44  C   LEU A   6       9.848  63.617  75.121  0.00  0.00    +0.241 C 
ATOM     45  O   LEU A   6       9.381  63.152  76.159  0.00  0.00    -0.273 OA
ATOM     46  N   LEU A   7       9.696  64.901  74.780  0.00  0.00    -0.297 N 
ATOM     47  H   LEU A   7      10.086  65.230  73.874  0.00  0.00    +0.150 HD
BRANCH  46  48
ATOM     48  CA  LEU A   7       8.997  65.862  75.641  0.00  0.00    +0.149 C 
BRANCH  48  49
ATOM     49  C   LEU A   7       7.617  65.335  76.019  0.00  0.00    +0.241 C 
ATOM     50  O   LEU A   7       7.204  65.305  77.211  0.00  0.00    -0.273 OA
ATOM     51  N   TYR A   8       6.906  64.923  74.974  0.00  0.00    -0.297 N 
ATOM     52  H   TYR A   8       7.324  64.954  74.022  0.00  0.00    +0.150 HD
BRANCH  51  53
ATOM     53  CA  TYR A   8       5.561  64.433  75.147  0.00  0.00    +0.153 C 
BRANCH  53  54
ATOM     54  C   TYR A   8       5.488  63.017  75.656  0.00  0.00    +0.241 C 
ATOM     55  O   TYR A   8       4.542  62.688  76.328  0.00  0.00    -0.273 OA
ATOM     56  N   GLY A   9       6.455  62.166  75.413  0.00  0.00    -0.295 N 
ATOM     57  H   GLY A   9       7.329  62.414  74.906  0.00  0.00    +0.150 HD
BRANCH  56  58
ATOM     58  CA  GLY A   9       6.173  60.846  75.927  0.00  0.00    +0.176 C 
BRANCH  58  59
ATOM     59  C   GLY A   9       7.129  60.023  76.760  0.00  0.00    +0.243 C 
ATOM     60  N   ALA A  10       8.254  60.597  77.177  0.00  0.00    -0.298 N 
ATOM     61  H   ALA A  10       8.428  61.598  76.955  0.00  0.00    +0.150 HD
ATOM     62  O   GLY A   9       6.830  58.856  77.002  0.00  0.00    -0.273 OA
BRANCH  60  63
ATOM     63  CA  ALA A  10       9.243  59.854  77.936  0.00  0.00    +0.137 C 
ATOM     64  CB  ALA A  10      10.525  59.875  77.213  0.00  0.00    +0.030 C 
BRANCH  63  65
ATOM     65  C   ALA A  10       9.448  60.472  79.310  0.00  0.00    +0.227 C 
ATOM     66  O   ALA A  10       9.471  61.695  79.453  0.00  0.00    -0.286 OA
ENDBRANCH  63  65
ENDBRANCH  60  63
ENDBRANCH  58  59
ENDBRANCH  56  58
ENDBRANCH  53  54
BRANCH  53  67
ATOM     67  CB  TYR A   8       4.740  64.528  73.839  0.00  0.00    +0.055 C 
BRANCH  67  68
ATOM     68  CG  TYR A   8       4.181  65.909  73.547  0.00  0.00    -0.020 A 
ATOM     69  CD2 TYR A   8       2.795  66.172  73.607  0.00  0.00    -0.001 A 
ATOM     70  CE2 TYR A   8       2.285  67.437  73.313  0.00  0.00    +0.036 A 
ATOM     71  CZ  TYR A   8       3.171  68.450  72.955  0.00  0.00    +0.134 A 
ATOM     72  CE1 TYR A   8       4.529  68.217  72.897  0.00  0.00    +0.036 A 
ATOM     73  CD1 TYR A   8       5.031  66.950  73.190  0.00  0.00    -0.001 A 
BRANCH  71  74
ATOM     74  OH  TYR A   8       2.740  69.702  72.594  0.00  0.00    -0.506 OA
ATOM     75  HH  TYR A   8       2.153  69.631  71.800  0.00  0.00    +0.292 HD
ENDBRANCH  71  74
ENDBRANCH  67  68
ENDBRANCH  53  67
ENDBRANCH  51  53
ENDBRANCH  48  49
BRANCH  48  76
ATOM     76  CB  LEU A   7       8.826  67.218  74.912  0.00  0.00    +0.029 C 
BRANCH  76  77
ATOM     77  CG  LEU A   7       7.807  68.123  75.612  0.00  0.00    +0.002 C 
ATOM     78  CD2 LEU A   7       8.246  68.391  77.120  0.00  0.00    +0.000 C 
ATOM     79  CD1 LEU A   7       7.651  69.427  74.865  0.00  0.00    +0.000 C 
ENDBRANCH  76  77
ENDBRANCH  48  76
ENDBRANCH  46  48
ENDBRANCH  43  44
BRANCH  43  80
ATOM     80  CB  LEU A   6      12.131  62.929  74.199  0.00  0.00    +0.029 C 
BRANCH  80  81
ATOM     81  CG  LEU A   6      12.980  61.835  73.495  0.00  0.00    +0.002 C 
ATOM     82  CD2 LEU A   6      12.945  60.548  74.354  0.00  0.00    +0.000 C 
ATOM     83  CD1 LEU A   6      14.396  62.327  73.276  0.00  0.00    +0.000 C 
ENDBRANCH  80  81
ENDBRANCH  43  80
ENDBRANCH  41  43
ENDBRANCH   1  39
BRANCH   1  84
ATOM     84  CB  PHE A   5       8.715  61.920  70.031  0.00  0.00    +0.055 C 
BRANCH  84  85
ATOM     85  CG  PHE A   5       8.240  62.265  68.633  0.00  0.00    -0.020 A 
ATOM     86  CD2 PHE A   5       6.950  61.942  68.218  0.00  0.00    -0.004 A 
ATOM     87  CE2 PHE A   5       6.471  62.367  66.976  0.00  0.00    -0.000 A 
ATOM     88  CZ  PHE A   5       7.280  63.118  66.129  0.00  0.00    -0.000 A 
ATOM     89  CE1 PHE A   5       8.585  63.458  66.522  0.00  0.00    -0.000 A 
ATOM     90  CD1 PHE A   5       9.055  63.023  67.780  0.00  0.00    -0.004 A 
ENDBRANCH  84  85
ENDBRANCH   1  84
TORSDOF 36
REMARK  Name = ../refined-set-2016/1h23/1h23_pocket.pdb
REMARK  278 active torsions:
REMARK  status: ('A' for Active; 'I' for Inactive)
REMARK    1  A    between atoms: _1  and  _3
REMARK    2  A    between atoms: _3  and  _4
REMARK    3  A    between atoms: _3  and  _6
REMARK    4  A    between atoms: _6  and  _7
REMARK    5  A    between atoms: _7  and  _8
REMARK    6  A    between atoms: _13  and  _15
REMARK    7  A    between atoms: _15  and  _16
REMARK    8  A    between atoms: _15  and  _18
REMARK    9  A    between atoms: _18  and  _19
REMARK   10  A    between atoms: _24  and  _25
REMARK   11  A    between atoms: _27  and  _29
REMARK   12  A    between atoms: _29  and  _30
REMARK   13  A    between atoms: _29  and  _32
REMARK   14  A    between atoms: _35  and  _37
REMARK   15  A    between atoms: _37  and  _38
REMARK   16  A    between atoms: _37  and  _40
REMARK   17  A    between atoms: _40  and  _41
REMARK   18  A    between atoms: _44  and  _46
REMARK   19  A    between atoms: _46  and  _47
REMARK   20  A    between atoms: _46  and  _49
REMARK   21  A    between atoms: _49  and  _50
REMARK   22  A    between atoms: _50  and  _51
REMARK   23  A    between atoms: _54  and  _56
REMARK   24  A    between atoms: _56  and  _57
REMARK   25  A    between atoms: _56  and  _59
REMARK   26  A    between atoms: _59  and  _60
REMARK   27  A    between atoms: _60  and  _61
REMARK   28  A    between atoms: _66  and  _68
REMARK   29  A    between atoms: _68  and  _69
REMARK   30  A    between atoms: _68  and  _71
REMARK   31  A    between atoms: _71  and  _72
REMARK   32  A    between atoms: _78  and  _80
REMARK   33  A    between atoms: _80  and  _81
REMARK   34  A    between atoms: _83  and  _85
REMARK   35  A    between atoms: _85  and  _86
REMARK   36  A    between atoms: _85  and  _88
REMARK   37  A    between atoms: _88  and  _89
REMARK   38  A    between atoms: _91  and  _93
REMARK   39  A    between atoms: _93  and  _94
REMARK   40  A    between atoms: _93  and  _96
REMARK   41  A    between atoms: _96  and  _97
REMARK   42  A    between atoms: _97  and  _98
REMARK   43  A    between atoms: _100  and  _102
REMARK   44  A    between atoms: _102  and  _103
REMARK   45  A    between atoms: _102  and  _105
REMARK   46  A    between atoms: _105  and  _106
REMARK   47  A    between atoms: _116  and  _118
REMARK   48  A    between atoms: _118  and  _119
REMARK   49  A    between atoms: _118  and  _121
REMARK   50  A    between atoms: _121  and  _122
REMARK   51  A    between atoms: _128  and  _129
REMARK   52  A    between atoms: _134  and  _136
REMARK   53  A    between atoms: _136  and  _137
REMARK   54  A    between atoms: _136  and  _139
REMARK   55  A    between atoms: _139  and  _140
REMARK   56  A    between atoms: _150  and  _152
REMARK   57  A    between atoms: _152  and  _153
REMARK   58  A    between atoms: _152  and  _155
REMARK   59  A    between atoms: _155  and  _156
REMARK   60  A    between atoms: _159  and  _161
REMARK   61  A    between atoms: _161  and  _162
REMARK   62  A    between atoms: _161  and  _164
REMARK   63  A    between atoms: _164  and  _165
REMARK   64  A    between atoms: _170  and  _171
REMARK   65  A    between atoms: _173  and  _175
REMARK   66  A    between atoms: _175  and  _176
REMARK   67  A    between atoms: _178  and  _180
REMARK   68  A    between atoms: _180  and  _181
REMARK   69  A    between atoms: _183  and  _185
REMARK   70  A    between atoms: _185  and  _186
REMARK   71  A    between atoms: _188  and  _190
REMARK   72  A    between atoms: _190  and  _191
REMARK   73  A    between atoms: _190  and  _193
REMARK   74  A    between atoms: _193  and  _194
REMARK   75  A    between atoms: _200  and  _202
REMARK   76  A    between atoms: _202  and  _203
REMARK   77  A    between atoms: _202  and  _205
REMARK   78  A    between atoms: _205  and  _206
REMARK   79  A    between atoms: _211  and  _212
REMARK   80  A    between atoms: _214  and  _216
REMARK   81  A    between atoms: _216  and  _217
REMARK   82  A    between atoms: _216  and  _219
REMARK   83  A    between atoms: _219  and  _220
REMARK   84  A    between atoms: _222  and  _224
REMARK   85  A    between atoms: _224  and  _225
REMARK   86  A    between atoms: _227  and  _229
REMARK   87  A    between atoms: _229  and  _230
REMARK   88  A    between atoms: _229  and  _232
REMARK   89  A    between atoms: _232  and  _233
REMARK   90  A    between atoms: _235  and  _237
REMARK   91  A    between atoms: _237  and  _238
REMARK   92  A    between atoms: _237  and  _240
REMARK   93  A    between atoms: _240  and  _241
REMARK   94  A    between atoms: _243  and  _245
REMARK   95  A    between atoms: _245  and  _246
REMARK   96  A    between atoms: _245  and  _248
REMARK   97  A    between atoms: _248  and  _249
REMARK   98  A    between atoms: _252  and  _254
REMARK   99  A    between atoms: _254  and  _255
REMARK  100  A    between atoms: _254  and  _257
REMARK  101  A    between atoms: _257  and  _258
REMARK  102  A    between atoms: _261  and  _263
REMARK  103  A    between atoms: _263  and  _264
REMARK  104  A    between atoms: _263  and  _266
REMARK  105  A    between atoms: _269  and  _271
REMARK  106  A    between atoms: _271  and  _272
REMARK  107  A    between atoms: _271  and  _274
REMARK  108  A    between atoms: _274  and  _275
REMARK  109  A    between atoms: _280  and  _281
REMARK  110  A    between atoms: _283  and  _285
REMARK  111  A    between atoms: _285  and  _286
REMARK  112  A    between atoms: _285  and  _288
REMARK  113  A    between atoms: _288  and  _289
REMARK  114  A    between atoms: _294  and  _295
REMARK  115  A    between atoms: _297  and  _299
REMARK  116  A    between atoms: _299  and  _300
REMARK  117  A    between atoms: _299  and  _302
REMARK  118  A    between atoms: _305  and  _307
REMARK  119  A    between atoms: _307  and  _308
REMARK  120  A    between atoms: _307  and  _310
REMARK  121  A    between atoms: _310  and  _311
REMARK  122  A    between atoms: _311  and  _312
REMARK  123  A    between atoms: _315  and  _317
REMARK  124  A    between atoms: _317  and  _318
REMARK  125  A    between atoms: _317  and  _320
REMARK  126  A    between atoms: _320  and  _321
REMARK  127  A    between atoms: _323  and  _325
REMARK  128  A    between atoms: _325  and  _326
REMARK  129  A    between atoms: _329  and  _331
REMARK  130  A    between atoms: _331  and  _332
REMARK  131  A    between atoms: _334  and  _336
REMARK  132  A    between atoms: _336  and  _337
REMARK  133  A    between atoms: _336  and  _339
REMARK  134  A    between atoms: _339  and  _340
REMARK  135  A    between atoms: _340  and  _341
REMARK  136  A    between atoms: _346  and  _348
REMARK  137  A    between atoms: _348  and  _349
REMARK  138  A    between atoms: _348  and  _351
REMARK  139  A    between atoms: _351  and  _352
REMARK  140  A    between atoms: _354  and  _356
REMARK  141  A    between atoms: _356  and  _357
REMARK  142  A    between atoms: _356  and  _359
REMARK  143  A    between atoms: _359  and  _360
REMARK  144  A    between atoms: _360  and  _361
REMARK  145  A    between atoms: _364  and  _366
REMARK  146  A    between atoms: _366  and  _367
REMARK  147  A    between atoms: _366  and  _369
REMARK  148  A    between atoms: _369  and  _370
REMARK  149  A    between atoms: _380  and  _382
REMARK  150  A    between atoms: _382  and  _383
REMARK  151  A    between atoms: _382  and  _385
REMARK  152  A    between atoms: _385  and  _386
REMARK  153  A    between atoms: _391  and  _393
REMARK  154  A    between atoms: _393  and  _394
REMARK  155  A    between atoms: _393  and  _396
REMARK  156  A    between atoms: _396  and  _397
REMARK  157  A    between atoms: _400  and  _402
REMARK  158  A    between atoms: _402  and  _403
REMARK  159  A    between atoms: _402  and  _405
REMARK  160  A    between atoms: _405  and  _406
REMARK  161  A    between atoms: _412  and  _414
REMARK  162  A    between atoms: _414  and  _415
REMARK  163  A    between atoms: _414  and  _417
REMARK  164  A    between atoms: _417  and  _418
REMARK  165  A    between atoms: _421  and  _423
REMARK  166  A    between atoms: _423  and  _424
REMARK  167  A    between atoms: _423  and  _426
REMARK  168  A    between atoms: _426  and  _427
REMARK  169  A    between atoms: _429  and  _431
REMARK  170  A    between atoms: _431  and  _432
REMARK  171  A    between atoms: _431  and  _434
REMARK  172  A    between atoms: _434  and  _435
REMARK  173  A    between atoms: _438  and  _440
REMARK  174  A    between atoms: _440  and  _441
REMARK  175  A    between atoms: _440  and  _443
REMARK  176  A    between atoms: _443  and  _444
REMARK  177  A    between atoms: _450  and  _452
REMARK  178  A    between atoms: _452  and  _453
REMARK  179  A    between atoms: _452  and  _455
REMARK  180  A    between atoms: _455  and  _456
REMARK  181  A    between atoms: _456  and  _457
REMARK  182  A    between atoms: _457  and  _458
REMARK  183  A    between atoms: _467  and  _469
REMARK  184  A    between atoms: _469  and  _470
REMARK  185  A    between atoms: _469  and  _472
REMARK  186  A    between atoms: _472  and  _473
REMARK  187  A    between atoms: _479  and  _481
REMARK  188  A    between atoms: _481  and  _482
REMARK  189  A    between atoms: _481  and  _484
REMARK  190  A    between atoms: _484  and  _485
REMARK  191  A    between atoms: _487  and  _489
REMARK  192  A    between atoms: _489  and  _490
REMARK  193  A    between atoms: _489  and  _492
REMARK  194  A    between atoms: _492  and  _493
REMARK  195  A    between atoms: _498  and  _500
REMARK  196  A    between atoms: _500  and  _501
REMARK  197  A    between atoms: _500  and  _503
REMARK  198  A    between atoms: _503  and  _504
REMARK  199  A    between atoms: _504  and  _505
REMARK  200  A    between atoms: _508  and  _510
REMARK  201  A    between atoms: _510  and  _511
REMARK  202  A    between atoms: _513  and  _515
REMARK  203  A    between atoms: _515  and  _516
REMARK  204  A    between atoms: _515  and  _518
REMARK  205  A    between atoms: _518  and  _519
REMARK  206  A    between atoms: _521  and  _523
REMARK  207  A    between atoms: _523  and  _524
REMARK  208  A    between atoms: _523  and  _526
REMARK  209  A    between atoms: _526  and  _527
REMARK  210  A    between atoms: _533  and  _535
REMARK  211  A    between atoms: _535  and  _536
REMARK  212  A    between atoms: _535  and  _538
REMARK  213  A    between atoms: _538  and  _539
REMARK  214  A    between atoms: _545  and  _547
REMARK  215  A    between atoms: _547  and  _548
REMARK  216  A    between atoms: _547  and  _550
REMARK  217  A    between atoms: _550  and  _551
REMARK  218  A    between atoms: _554  and  _556
REMARK  219  A    between atoms: _556  and  _557
REMARK  220  A    between atoms: _556  and  _559
REMARK  221  A    between atoms: _559  and  _560
REMARK  222  A    between atoms: _563  and  _565
REMARK  223  A    between atoms: _565  and  _566
REMARK  224  A    between atoms: _565  and  _568
REMARK  225  A    between atoms: _568  and  _569
REMARK  226  A    between atoms: _574  and  _575
REMARK  227  A    between atoms: _577  and  _579
REMARK  228  A    between atoms: _579  and  _580
REMARK  229  A    between atoms: _582  and  _584
REMARK  230  A    between atoms: _584  and  _585
REMARK  231  A    between atoms: _588  and  _590
REMARK  232  A    between atoms: _590  and  _591
REMARK  233  A    between atoms: _590  and  _593
REMARK  234  A    between atoms: _593  and  _594
REMARK  235  A    between atoms: _597  and  _599
REMARK  236  A    between atoms: _599  and  _600
REMARK  237  A    between atoms: _599  and  _602
REMARK  238  A    between atoms: _602  and  _603
REMARK  239  A    between atoms: _605  and  _607
REMARK  240  A    between atoms: _607  and  _608
REMARK  241  A    between atoms: _607  and  _610
REMARK  242  A    between atoms: _613  and  _615
REMARK  243  A    between atoms: _615  and  _616
REMARK  244  A    between atoms: _615  and  _618
REMARK  245  A    between atoms: _618  and  _619
REMARK  246  A    between atoms: _624  and  _626
REMARK  247  A    between atoms: _626  and  _627
REMARK  248  A    between atoms: _626  and  _629
REMARK  249  A    between atoms: _629  and  _630
REMARK  250  A    between atoms: _640  and  _642
REMARK  251  A    between atoms: _642  and  _643
REMARK  252  A    between atoms: _642  and  _645
REMARK  253  A    between atoms: _645  and  _646
REMARK  254  A    between atoms: _646  and  _647
REMARK  255  A    between atoms: _649  and  _651
REMARK  256  A    between atoms: _651  and  _652
REMARK  257  A    between atoms: _651  and  _654
REMARK  258  A    between atoms: _654  and  _655
REMARK  259  A    between atoms: _658  and  _660
REMARK  260  A    between atoms: _660  and  _661
REMARK  261  A    between atoms: _660  and  _663
REMARK  262  A    between atoms: _663  and  _664
REMARK  263  A    between atoms: _669  and  _671
REMARK  264  A    between atoms: _671  and  _672
REMARK  265  A    between atoms: _674  and  _676
REMARK  266  A    between atoms: _676  and  _677
REMARK  267  A    between atoms: _676  and  _679
REMARK  268  A    between atoms: _679  and  _680
REMARK  269  A    between atoms: _685  and  _686
REMARK  270  A    between atoms: _688  and  _690
REMARK  271  A    between atoms: _690  and  _691
REMARK  272  A    between atoms: _690  and  _693
REMARK  273  A    between atoms: _693  and  _694
REMARK  274  A    between atoms: _694  and  _695
REMARK  275  A    between atoms: _698  and  _700
REMARK  276  A    between atoms: _700  and  _701
REMARK  277  A    between atoms: _700  and  _703
REMARK  278  A    between atoms: _703  and  _704
REMARK                            x       y       z     vdW  Elec       q    Type
REMARK                         _______ _______ _______ _____ _____    ______ ____
ROOT
ATOM      1  C   LEU A   1      10.410  53.579  73.240  0.00  0.00    +0.238 C 
ATOM      2  N   SER A   2      11.662  53.896  72.904  0.00  0.00    -0.296 N 
ATOM      3  H   SER A   2      12.387  53.902  73.649  0.00  0.00    +0.150 HD
ATOM      4  O   LEU A   1       9.502  53.499  72.408  0.00  0.00    -0.274 OA
ENDROOT
BRANCH   1   5
ATOM      5  CA  LEU A   1      10.153  53.299  74.740  0.00  0.00    +0.145 C 
BRANCH   5   6
ATOM      6  N   LEU A   1      11.302  52.634  75.378  0.00  0.00    -0.238 NA
ATOM      7  H   LEU A   1      11.839  53.149  76.105  0.00  0.00    +0.142 HD
ENDBRANCH   5   6
BRANCH   5   8
ATOM      8  CB  LEU A   1       9.888  54.632  75.443  0.00  0.00    +0.026 C 
BRANCH   8   9
ATOM      9  CG  LEU A   1       8.668  54.977  76.292  0.00  0.00    +0.002 C 
ATOM     10  CD2 LEU A   1       9.162  55.952  77.425  0.00  0.00    +0.000 C 
ATOM     11  CD1 LEU A   1       7.924  53.729  76.791  0.00  0.00    +0.000 C 
ENDBRANCH   8   9
ENDBRANCH   5   8
ENDBRANCH   1   5
BRANCH   2  12
ATOM     12  CA  SER A   2      12.066  54.236  71.536  0.00  0.00    +0.166 C 
BRANCH  12  13
ATOM     13  C   SER A   2      12.223  53.100  70.564  0.00  0.00    +0.229 C 
ATOM     14  O   SER A   2      12.107  53.307  69.373  0.00  0.00    -0.286 OA
ENDBRANCH  12  13
BRANCH  12  15
ATOM     15  CB  SER A   2      13.378  54.973  71.574  0.00  0.00    +0.165 C 
BRANCH  15  16
ATOM     16  OG  SER A   2      13.268  56.072  72.442  0.00  0.00    -0.380 OA
ATOM     17  H   SER A   2      13.041  55.752  73.351  0.00  0.00    +0.211 HD
ENDBRANCH  15  16
ENDBRANCH  12  15
ENDBRANCH   2  12
TORSDOF 8
REMARK  Name = ../refined-set-2016/1h23/1h23_pocket.pdb
REMARK  278 active torsions:
REMARK  status: ('A' for Active; 'I' for Inactive)
REMARK    1  A    between atoms: _1  and  _3
REMARK    2  A    between atoms: _3  and  _4
REMARK    3  A    between atoms: _3  and  _6
REMARK    4  A    between atoms: _6  and  _7
REMARK    5  A    between atoms: _7  and  _8
REMARK    6  A    between atoms: _13  and  _15
REMARK    7  A    between atoms: _15  and  _16
REMARK    8  A    between atoms: _15  and  _18
REMARK    9  A    between atoms: _18  and  _19
REMARK   10  A    between atoms: _24  and  _25
REMARK   11  A    between atoms: _27  and  _29
REMARK   12  A    between atoms: _29  and  _30
REMARK   13  A    between atoms: _29  and  _32
REMARK   14  A    between atoms: _35  and  _37
REMARK   15  A    between atoms: _37  and  _38
REMARK   16  A    between atoms: _37  and  _40
REMARK   17  A    between atoms: _40  and  _41
REMARK   18  A    between atoms: _44  and  _46
REMARK   19  A    between atoms: _46  and  _47
REMARK   20  A    between atoms: _46  and  _49
REMARK   21  A    between atoms: _49  and  _50
REMARK   22  A    between atoms: _50  and  _51
REMARK   23  A    between atoms: _54  and  _56
REMARK   24  A    between atoms: _56  and  _57
REMARK   25  A    between atoms: _56  and  _59
REMARK   26  A    between atoms: _59  and  _60
REMARK   27  A    between atoms: _60  and  _61
REMARK   28  A    between atoms: _66  and  _68
REMARK   29  A    between atoms: _68  and  _69
REMARK   30  A    between atoms: _68  and  _71
REMARK   31  A    between atoms: _71  and  _72
REMARK   32  A    between atoms: _78  and  _80
REMARK   33  A    between atoms: _80  and  _81
REMARK   34  A    between atoms: _83  and  _85
REMARK   35  A    between atoms: _85  and  _86
REMARK   36  A    between atoms: _85  and  _88
REMARK   37  A    between atoms: _88  and  _89
REMARK   38  A    between atoms: _91  and  _93
REMARK   39  A    between atoms: _93  and  _94
REMARK   40  A    between atoms: _93  and  _96
REMARK   41  A    between atoms: _96  and  _97
REMARK   42  A    between atoms: _97  and  _98
REMARK   43  A    between atoms: _100  and  _102
REMARK   44  A    between atoms: _102  and  _103
REMARK   45  A    between atoms: _102  and  _105
REMARK   46  A    between atoms: _105  and  _106
REMARK   47  A    between atoms: _116  and  _118
REMARK   48  A    between atoms: _118  and  _119
REMARK   49  A    between atoms: _118  and  _121
REMARK   50  A    between atoms: _121  and  _122
REMARK   51  A    between atoms: _128  and  _129
REMARK   52  A    between atoms: _134  and  _136
REMARK   53  A    between atoms: _136  and  _137
REMARK   54  A    between atoms: _136  and  _139
REMARK   55  A    between atoms: _139  and  _140
REMARK   56  A    between atoms: _150  and  _152
REMARK   57  A    between atoms: _152  and  _153
REMARK   58  A    between atoms: _152  and  _155
REMARK   59  A    between atoms: _155  and  _156
REMARK   60  A    between atoms: _159  and  _161
REMARK   61  A    between atoms: _161  and  _162
REMARK   62  A    between atoms: _161  and  _164
REMARK   63  A    between atoms: _164  and  _165
REMARK   64  A    between atoms: _170  and  _171
REMARK   65  A    between atoms: _173  and  _175
REMARK   66  A    between atoms: _175  and  _176
REMARK   67  A    between atoms: _178  and  _180
REMARK   68  A    between atoms: _180  and  _181
REMARK   69  A    between atoms: _183  and  _185
REMARK   70  A    between atoms: _185  and  _186
REMARK   71  A    between atoms: _188  and  _190
REMARK   72  A    between atoms: _190  and  _191
REMARK   73  A    between atoms: _190  and  _193
REMARK   74  A    between atoms: _193  and  _194
REMARK   75  A    between atoms: _200  and  _202
REMARK   76  A    between atoms: _202  and  _203
REMARK   77  A    between atoms: _202  and  _205
REMARK   78  A    between atoms: _205  and  _206
REMARK   79  A    between atoms: _211  and  _212
REMARK   80  A    between atoms: _214  and  _216
REMARK   81  A    between atoms: _216  and  _217
REMARK   82  A    between atoms: _216  and  _219
REMARK   83  A    between atoms: _219  and  _220
REMARK   84  A    between atoms: _222  and  _224
REMARK   85  A    between atoms: _224  and  _225
REMARK   86  A    between atoms: _227  and  _229
REMARK   87  A    between atoms: _229  and  _230
REMARK   88  A    between atoms: _229  and  _232
REMARK   89  A    between atoms: _232  and  _233
REMARK   90  A    between atoms: _235  and  _237
REMARK   91  A    between atoms: _237  and  _238
REMARK   92  A    between atoms: _237  and  _240
REMARK   93  A    between atoms: _240  and  _241
REMARK   94  A    between atoms: _243  and  _245
REMARK   95  A    between atoms: _245  and  _246
REMARK   96  A    between atoms: _245  and  _248
REMARK   97  A    between atoms: _248  and  _249
REMARK   98  A    between atoms: _252  and  _254
REMARK   99  A    between atoms: _254  and  _255
REMARK  100  A    between atoms: _254  and  _257
REMARK  101  A    between atoms: _257  and  _258
REMARK  102  A    between atoms: _261  and  _263
REMARK  103  A    between atoms: _263  and  _264
REMARK  104  A    between atoms: _263  and  _266
REMARK  105  A    between atoms: _269  and  _271
REMARK  106  A    between atoms: _271  and  _272
REMARK  107  A    between atoms: _271  and  _274
REMARK  108  A    between atoms: _274  and  _275
REMARK  109  A    between atoms: _280  and  _281
REMARK  110  A    between atoms: _283  and  _285
REMARK  111  A    between atoms: _285  and  _286
REMARK  112  A    between atoms: _285  and  _288
REMARK  113  A    between atoms: _288  and  _289
REMARK  114  A    between atoms: _294  and  _295
REMARK  115  A    between atoms: _297  and  _299
REMARK  116  A    between atoms: _299  and  _300
REMARK  117  A    between atoms: _299  and  _302
REMARK  118  A    between atoms: _305  and  _307
REMARK  119  A    between atoms: _307  and  _308
REMARK  120  A    between atoms: _307  and  _310
REMARK  121  A    between atoms: _310  and  _311
REMARK  122  A    between atoms: _311  and  _312
REMARK  123  A    between atoms: _315  and  _317
REMARK  124  A    between atoms: _317  and  _318
REMARK  125  A    between atoms: _317  and  _320
REMARK  126  A    between atoms: _320  and  _321
REMARK  127  A    between atoms: _323  and  _325
REMARK  128  A    between atoms: _325  and  _326
REMARK  129  A    between atoms: _329  and  _331
REMARK  130  A    between atoms: _331  and  _332
REMARK  131  A    between atoms: _334  and  _336
REMARK  132  A    between atoms: _336  and  _337
REMARK  133  A    between atoms: _336  and  _339
REMARK  134  A    between atoms: _339  and  _340
REMARK  135  A    between atoms: _340  and  _341
REMARK  136  A    between atoms: _346  and  _348
REMARK  137  A    between atoms: _348  and  _349
REMARK  138  A    between atoms: _348  and  _351
REMARK  139  A    between atoms: _351  and  _352
REMARK  140  A    between atoms: _354  and  _356
REMARK  141  A    between atoms: _356  and  _357
REMARK  142  A    between atoms: _356  and  _359
REMARK  143  A    between atoms: _359  and  _360
REMARK  144  A    between atoms: _360  and  _361
REMARK  145  A    between atoms: _364  and  _366
REMARK  146  A    between atoms: _366  and  _367
REMARK  147  A    between atoms: _366  and  _369
REMARK  148  A    between atoms: _369  and  _370
REMARK  149  A    between atoms: _380  and  _382
REMARK  150  A    between atoms: _382  and  _383
REMARK  151  A    between atoms: _382  and  _385
REMARK  152  A    between atoms: _385  and  _386
REMARK  153  A    between atoms: _391  and  _393
REMARK  154  A    between atoms: _393  and  _394
REMARK  155  A    between atoms: _393  and  _396
REMARK  156  A    between atoms: _396  and  _397
REMARK  157  A    between atoms: _400  and  _402
REMARK  158  A    between atoms: _402  and  _403
REMARK  159  A    between atoms: _402  and  _405
REMARK  160  A    between atoms: _405  and  _406
REMARK  161  A    between atoms: _412  and  _414
REMARK  162  A    between atoms: _414  and  _415
REMARK  163  A    between atoms: _414  and  _417
REMARK  164  A    between atoms: _417  and  _418
REMARK  165  A    between atoms: _421  and  _423
REMARK  166  A    between atoms: _423  and  _424
REMARK  167  A    between atoms: _423  and  _426
REMARK  168  A    between atoms: _426  and  _427
REMARK  169  A    between atoms: _429  and  _431
REMARK  170  A    between atoms: _431  and  _432
REMARK  171  A    between atoms: _431  and  _434
REMARK  172  A    between atoms: _434  and  _435
REMARK  173  A    between atoms: _438  and  _440
REMARK  174  A    between atoms: _440  and  _441
REMARK  175  A    between atoms: _440  and  _443
REMARK  176  A    between atoms: _443  and  _444
REMARK  177  A    between atoms: _450  and  _452
REMARK  178  A    between atoms: _452  and  _453
REMARK  179  A    between atoms: _452  and  _455
REMARK  180  A    between atoms: _455  and  _456
REMARK  181  A    between atoms: _456  and  _457
REMARK  182  A    between atoms: _457  and  _458
REMARK  183  A    between atoms: _467  and  _469
REMARK  184  A    between atoms: _469  and  _470
REMARK  185  A    between atoms: _469  and  _472
REMARK  186  A    between atoms: _472  and  _473
REMARK  187  A    between atoms: _479  and  _481
REMARK  188  A    between atoms: _481  and  _482
REMARK  189  A    between atoms: _481  and  _484
REMARK  190  A    between atoms: _484  and  _485
REMARK  191  A    between atoms: _487  and  _489
REMARK  192  A    between atoms: _489  and  _490
REMARK  193  A    between atoms: _489  and  _492
REMARK  194  A    between atoms: _492  and  _493
REMARK  195  A    between atoms: _498  and  _500
REMARK  196  A    between atoms: _500  and  _501
REMARK  197  A    between atoms: _500  and  _503
REMARK  198  A    between atoms: _503  and  _504
REMARK  199  A    between atoms: _504  and  _505
REMARK  200  A    between atoms: _508  and  _510
REMARK  201  A    between atoms: _510  and  _511
REMARK  202  A    between atoms: _513  and  _515
REMARK  203  A    between atoms: _515  and  _516
REMARK  204  A    between atoms: _515  and  _518
REMARK  205  A    between atoms: _518  and  _519
REMARK  206  A    between atoms: _521  and  _523
REMARK  207  A    between atoms: _523  and  _524
REMARK  208  A    between atoms: _523  and  _526
REMARK  209  A    between atoms: _526  and  _527
REMARK  210  A    between atoms: _533  and  _535
REMARK  211  A    between atoms: _535  and  _536
REMARK  212  A    between atoms: _535  and  _538
REMARK  213  A    between atoms: _538  and  _539
REMARK  214  A    between atoms: _545  and  _547
REMARK  215  A    between atoms: _547  and  _548
REMARK  216  A    between atoms: _547  and  _550
REMARK  217  A    between atoms: _550  and  _551
REMARK  218  A    between atoms: _554  and  _556
REMARK  219  A    between atoms: _556  and  _557
REMARK  220  A    between atoms: _556  and  _559
REMARK  221  A    between atoms: _559  and  _560
REMARK  222  A    between atoms: _563  and  _565
REMARK  223  A    between atoms: _565  and  _566
REMARK  224  A    between atoms: _565  and  _568
REMARK  225  A    between atoms: _568  and  _569
REMARK  226  A    between atoms: _574  and  _575
REMARK  227  A    between atoms: _577  and  _579
REMARK  228  A    between atoms: _579  and  _580
REMARK  229  A    between atoms: _582  and  _584
REMARK  230  A    between atoms: _584  and  _585
REMARK  231  A    between atoms: _588  and  _590
REMARK  232  A    between atoms: _590  and  _591
REMARK  233  A    between atoms: _590  and  _593
REMARK  234  A    between atoms: _593  and  _594
REMARK  235  A    between atoms: _597  and  _599
REMARK  236  A    between atoms: _599  and  _600
REMARK  237  A    between atoms: _599  and  _602
REMARK  238  A    between atoms: _602  and  _603
REMARK  239  A    between atoms: _605  and  _607
REMARK  240  A    between atoms: _607  and  _608
REMARK  241  A    between atoms: _607  and  _610
REMARK  242  A    between atoms: _613  and  _615
REMARK  243  A    between atoms: _615  and  _616
REMARK  244  A    between atoms: _615  and  _618
REMARK  245  A    between atoms: _618  and  _619
REMARK  246  A    between atoms: _624  and  _626
REMARK  247  A    between atoms: _626  and  _627
REMARK  248  A    between atoms: _626  and  _629
REMARK  249  A    between atoms: _629  and  _630
REMARK  250  A    between atoms: _640  and  _642
REMARK  251  A    between atoms: _642  and  _643
REMARK  252  A    between atoms: _642  and  _645
REMARK  253  A    between atoms: _645  and  _646
REMARK  254  A    between atoms: _646  and  _647
REMARK  255  A    between atoms: _649  and  _651
REMARK  256  A    between atoms: _651  and  _652
REMARK  257  A    between atoms: _651  and  _654
REMARK  258  A    between atoms: _654  and  _655
REMARK  259  A    between atoms: _658  and  _660
REMARK  260  A    between atoms: _660  and  _661
REMARK  261  A    between atoms: _660  and  _663
REMARK  262  A    between atoms: _663  and  _664
REMARK  263  A    between atoms: _669  and  _671
REMARK  264  A    between atoms: _671  and  _672
REMARK  265  A    between atoms: _674  and  _676
REMARK  266  A    between atoms: _676  and  _677
REMARK  267  A    between atoms: _676  and  _679
REMARK  268  A    between atoms: _679  and  _680
REMARK  269  A    between atoms: _685  and  _686
REMARK  270  A    between atoms: _688  and  _690
REMARK  271  A    between atoms: _690  and  _691
REMARK  272  A    between atoms: _690  and  _693
REMARK  273  A    between atoms: _693  and  _694
REMARK  274  A    between atoms: _694  and  _695
REMARK  275  A    between atoms: _698  and  _700
REMARK  276  A    between atoms: _700  and  _701
REMARK  277  A    between atoms: _700  and  _703
REMARK  278  A    between atoms: _703  and  _704
REMARK                            x       y       z     vdW  Elec       q    Type
REMARK                         _______ _______ _______ _____ _____    ______ ____
ROOT
ATOM      1  CA  VAL A   1      14.749  58.854  68.645  0.00  0.00    +0.133 C 
ENDROOT
BRANCH   1   2
ATOM      2  CB  VAL A   1      13.829  59.706  69.599  0.00  0.00    +0.023 C 
ATOM      3  CG2 VAL A   1      13.719  59.022  70.948  0.00  0.00    +0.002 C 
ATOM      4  CG1 VAL A   1      12.469  59.866  69.014  0.00  0.00    +0.002 C 
ENDBRANCH   1   2
BRANCH   1   5
ATOM      5  N   VAL A   1      16.084  58.743  69.198  0.00  0.00    -0.239 NA
ATOM      6  H   VAL A   1      16.353  59.309  70.028  0.00  0.00    +0.142 HD
ENDBRANCH   1   5
BRANCH   1   7
ATOM      7  C   VAL A   1      14.800  59.389  67.229  0.00  0.00    +0.224 C 
ATOM      8  O   VAL A   1      14.189  58.815  66.326  0.00  0.00    -0.287 OA
ENDBRANCH   1   7
TORSDOF 3
REMARK  Name = ../refined-set-2016/1h23/1h23_pocket.pdb
REMARK  278 active torsions:
REMARK  status: ('A' for Active; 'I' for Inactive)
REMARK    1  A    between atoms: _1  and  _3
REMARK    2  A    between atoms: _3  and  _4
REMARK    3  A    between atoms: _3  and  _6
REMARK    4  A    between atoms: _6  and  _7
REMARK    5  A    between atoms: _7  and  _8
REMARK    6  A    between atoms: _13  and  _15
REMARK    7  A    between atoms: _15  and  _16
REMARK    8  A    between atoms: _15  and  _18
REMARK    9  A    between atoms: _18  and  _19
REMARK   10  A    between atoms: _24  and  _25
REMARK   11  A    between atoms: _27  and  _29
REMARK   12  A    between atoms: _29  and  _30
REMARK   13  A    between atoms: _29  and  _32
REMARK   14  A    between atoms: _35  and  _37
REMARK   15  A    between atoms: _37  and  _38
REMARK   16  A    between atoms: _37  and  _40
REMARK   17  A    between atoms: _40  and  _41
REMARK   18  A    between atoms: _44  and  _46
REMARK   19  A    between atoms: _46  and  _47
REMARK   20  A    between atoms: _46  and  _49
REMARK   21  A    between atoms: _49  and  _50
REMARK   22  A    between atoms: _50  and  _51
REMARK   23  A    between atoms: _54  and  _56
REMARK   24  A    between atoms: _56  and  _57
REMARK   25  A    between atoms: _56  and  _59
REMARK   26  A    between atoms: _59  and  _60
REMARK   27  A    between atoms: _60  and  _61
REMARK   28  A    between atoms: _66  and  _68
REMARK   29  A    between atoms: _68  and  _69
REMARK   30  A    between atoms: _68  and  _71
REMARK   31  A    between atoms: _71  and  _72
REMARK   32  A    between atoms: _78  and  _80
REMARK   33  A    between atoms: _80  and  _81
REMARK   34  A    between atoms: _83  and  _85
REMARK   35  A    between atoms: _85  and  _86
REMARK   36  A    between atoms: _85  and  _88
REMARK   37  A    between atoms: _88  and  _89
REMARK   38  A    between atoms: _91  and  _93
REMARK   39  A    between atoms: _93  and  _94
REMARK   40  A    between atoms: _93  and  _96
REMARK   41  A    between atoms: _96  and  _97
REMARK   42  A    between atoms: _97  and  _98
REMARK   43  A    between atoms: _100  and  _102
REMARK   44  A    between atoms: _102  and  _103
REMARK   45  A    between atoms: _102  and  _105
REMARK   46  A    between atoms: _105  and  _106
REMARK   47  A    between atoms: _116  and  _118
REMARK   48  A    between atoms: _118  and  _119
REMARK   49  A    between atoms: _118  and  _121
REMARK   50  A    between atoms: _121  and  _122
REMARK   51  A    between atoms: _128  and  _129
REMARK   52  A    between atoms: _134  and  _136
REMARK   53  A    between atoms: _136  and  _137
REMARK   54  A    between atoms: _136  and  _139
REMARK   55  A    between atoms: _139  and  _140
REMARK   56  A    between atoms: _150  and  _152
REMARK   57  A    between atoms: _152  and  _153
REMARK   58  A    between atoms: _152  and  _155
REMARK   59  A    between atoms: _155  and  _156
REMARK   60  A    between atoms: _159  and  _161
REMARK   61  A    between atoms: _161  and  _162
REMARK   62  A    between atoms: _161  and  _164
REMARK   63  A    between atoms: _164  and  _165
REMARK   64  A    between atoms: _170  and  _171
REMARK   65  A    between atoms: _173  and  _175
REMARK   66  A    between atoms: _175  and  _176
REMARK   67  A    between atoms: _178  and  _180
REMARK   68  A    between atoms: _180  and  _181
REMARK   69  A    between atoms: _183  and  _185
REMARK   70  A    between atoms: _185  and  _186
REMARK   71  A    between atoms: _188  and  _190
REMARK   72  A    between atoms: _190  and  _191
REMARK   73  A    between atoms: _190  and  _193
REMARK   74  A    between atoms: _193  and  _194
REMARK   75  A    between atoms: _200  and  _202
REMARK   76  A    between atoms: _202  and  _203
REMARK   77  A    between atoms: _202  and  _205
REMARK   78  A    between atoms: _205  and  _206
REMARK   79  A    between atoms: _211  and  _212
REMARK   80  A    between atoms: _214  and  _216
REMARK   81  A    between atoms: _216  and  _217
REMARK   82  A    between atoms: _216  and  _219
REMARK   83  A    between atoms: _219  and  _220
REMARK   84  A    between atoms: _222  and  _224
REMARK   85  A    between atoms: _224  and  _225
REMARK   86  A    between atoms: _227  and  _229
REMARK   87  A    between atoms: _229  and  _230
REMARK   88  A    between atoms: _229  and  _232
REMARK   89  A    between atoms: _232  and  _233
REMARK   90  A    between atoms: _235  and  _237
REMARK   91  A    between atoms: _237  and  _238
REMARK   92  A    between atoms: _237  and  _240
REMARK   93  A    between atoms: _240  and  _241
REMARK   94  A    between atoms: _243  and  _245
REMARK   95  A    between atoms: _245  and  _246
REMARK   96  A    between atoms: _245  and  _248
REMARK   97  A    between atoms: _248  and  _249
REMARK   98  A    between atoms: _252  and  _254
REMARK   99  A    between atoms: _254  and  _255
REMARK  100  A    between atoms: _254  and  _257
REMARK  101  A    between atoms: _257  and  _258
REMARK  102  A    between atoms: _261  and  _263
REMARK  103  A    between atoms: _263  and  _264
REMARK  104  A    between atoms: _263  and  _266
REMARK  105  A    between atoms: _269  and  _271
REMARK  106  A    between atoms: _271  and  _272
REMARK  107  A    between atoms: _271  and  _274
REMARK  108  A    between atoms: _274  and  _275
REMARK  109  A    between atoms: _280  and  _281
REMARK  110  A    between atoms: _283  and  _285
REMARK  111  A    between atoms: _285  and  _286
REMARK  112  A    between atoms: _285  and  _288
REMARK  113  A    between atoms: _288  and  _289
REMARK  114  A    between atoms: _294  and  _295
REMARK  115  A    between atoms: _297  and  _299
REMARK  116  A    between atoms: _299  and  _300
REMARK  117  A    between atoms: _299  and  _302
REMARK  118  A    between atoms: _305  and  _307
REMARK  119  A    between atoms: _307  and  _308
REMARK  120  A    between atoms: _307  and  _310
REMARK  121  A    between atoms: _310  and  _311
REMARK  122  A    between atoms: _311  and  _312
REMARK  123  A    between atoms: _315  and  _317
REMARK  124  A    between atoms: _317  and  _318
REMARK  125  A    between atoms: _317  and  _320
REMARK  126  A    between atoms: _320  and  _321
REMARK  127  A    between atoms: _323  and  _325
REMARK  128  A    between atoms: _325  and  _326
REMARK  129  A    between atoms: _329  and  _331
REMARK  130  A    between atoms: _331  and  _332
REMARK  131  A    between atoms: _334  and  _336
REMARK  132  A    between atoms: _336  and  _337
REMARK  133  A    between atoms: _336  and  _339
REMARK  134  A    between atoms: _339  and  _340
REMARK  135  A    between atoms: _340  and  _341
REMARK  136  A    between atoms: _346  and  _348
REMARK  137  A    between atoms: _348  and  _349
REMARK  138  A    between atoms: _348  and  _351
REMARK  139  A    between atoms: _351  and  _352
REMARK  140  A    between atoms: _354  and  _356
REMARK  141  A    between atoms: _356  and  _357
REMARK  142  A    between atoms: _356  and  _359
REMARK  143  A    between atoms: _359  and  _360
REMARK  144  A    between atoms: _360  and  _361
REMARK  145  A    between atoms: _364  and  _366
REMARK  146  A    between atoms: _366  and  _367
REMARK  147  A    between atoms: _366  and  _369
REMARK  148  A    between atoms: _369  and  _370
REMARK  149  A    between atoms: _380  and  _382
REMARK  150  A    between atoms: _382  and  _383
REMARK  151  A    between atoms: _382  and  _385
REMARK  152  A    between atoms: _385  and  _386
REMARK  153  A    between atoms: _391  and  _393
REMARK  154  A    between atoms: _393  and  _394
REMARK  155  A    between atoms: _393  and  _396
REMARK  156  A    between atoms: _396  and  _397
REMARK  157  A    between atoms: _400  and  _402
REMARK  158  A    between atoms: _402  and  _403
REMARK  159  A    between atoms: _402  and  _405
REMARK  160  A    between atoms: _405  and  _406
REMARK  161  A    between atoms: _412  and  _414
REMARK  162  A    between atoms: _414  and  _415
REMARK  163  A    between atoms: _414  and  _417
REMARK  164  A    between atoms: _417  and  _418
REMARK  165  A    between atoms: _421  and  _423
REMARK  166  A    between atoms: _423  and  _424
REMARK  167  A    between atoms: _423  and  _426
REMARK  168  A    between atoms: _426  and  _427
REMARK  169  A    between atoms: _429  and  _431
REMARK  170  A    between atoms: _431  and  _432
REMARK  171  A    between atoms: _431  and  _434
REMARK  172  A    between atoms: _434  and  _435
REMARK  173  A    between atoms: _438  and  _440
REMARK  174  A    between atoms: _440  and  _441
REMARK  175  A    between atoms: _440  and  _443
REMARK  176  A    between atoms: _443  and  _444
REMARK  177  A    between atoms: _450  and  _452
REMARK  178  A    between atoms: _452  and  _453
REMARK  179  A    between atoms: _452  and  _455
REMARK  180  A    between atoms: _455  and  _456
REMARK  181  A    between atoms: _456  and  _457
REMARK  182  A    between atoms: _457  and  _458
REMARK  183  A    between atoms: _467  and  _469
REMARK  184  A    between atoms: _469  and  _470
REMARK  185  A    between atoms: _469  and  _472
REMARK  186  A    between atoms: _472  and  _473
REMARK  187  A    between atoms: _479  and  _481
REMARK  188  A    between atoms: _481  and  _482
REMARK  189  A    between atoms: _481  and  _484
REMARK  190  A    between atoms: _484  and  _485
REMARK  191  A    between atoms: _487  and  _489
REMARK  192  A    between atoms: _489  and  _490
REMARK  193  A    between atoms: _489  and  _492
REMARK  194  A    between atoms: _492  and  _493
REMARK  195  A    between atoms: _498  and  _500
REMARK  196  A    between atoms: _500  and  _501
REMARK  197  A    between atoms: _500  and  _503
REMARK  198  A    between atoms: _503  and  _504
REMARK  199  A    between atoms: _504  and  _505
REMARK  200  A    between atoms: _508  and  _510
REMARK  201  A    between atoms: _510  and  _511
REMARK  202  A    between atoms: _513  and  _515
REMARK  203  A    between atoms: _515  and  _516
REMARK  204  A    between atoms: _515  and  _518
REMARK  205  A    between atoms: _518  and  _519
REMARK  206  A    between atoms: _521  and  _523
REMARK  207  A    between atoms: _523  and  _524
REMARK  208  A    between atoms: _523  and  _526
REMARK  209  A    between atoms: _526  and  _527
REMARK  210  A    between atoms: _533  and  _535
REMARK  211  A    between atoms: _535  and  _536
REMARK  212  A    between atoms: _535  and  _538
REMARK  213  A    between atoms: _538  and  _539
REMARK  214  A    between atoms: _545  and  _547
REMARK  215  A    between atoms: _547  and  _548
REMARK  216  A    between atoms: _547  and  _550
REMARK  217  A    between atoms: _550  and  _551
REMARK  218  A    between atoms: _554  and  _556
REMARK  219  A    between atoms: _556  and  _557
REMARK  220  A    between atoms: _556  and  _559
REMARK  221  A    between atoms: _559  and  _560
REMARK  222  A    between atoms: _563  and  _565
REMARK  223  A    between atoms: _565  and  _566
REMARK  224  A    between atoms: _565  and  _568
REMARK  225  A    between atoms: _568  and  _569
REMARK  226  A    between atoms: _574  and  _575
REMARK  227  A    between atoms: _577  and  _579
REMARK  228  A    between atoms: _579  and  _580
REMARK  229  A    between atoms: _582  and  _584
REMARK  230  A    between atoms: _584  and  _585
REMARK  231  A    between atoms: _588  and  _590
REMARK  232  A    between atoms: _590  and  _591
REMARK  233  A    between atoms: _590  and  _593
REMARK  234  A    between atoms: _593  and  _594
REMARK  235  A    between atoms: _597  and  _599
REMARK  236  A    between atoms: _599  and  _600
REMARK  237  A    between atoms: _599  and  _602
REMARK  238  A    between atoms: _602  and  _603
REMARK  239  A    between atoms: _605  and  _607
REMARK  240  A    between atoms: _607  and  _608
REMARK  241  A    between atoms: _607  and  _610
REMARK  242  A    between atoms: _613  and  _615
REMARK  243  A    between atoms: _615  and  _616
REMARK  244  A    between atoms: _615  and  _618
REMARK  245  A    between atoms: _618  and  _619
REMARK  246  A    between atoms: _624  and  _626
REMARK  247  A    between atoms: _626  and  _627
REMARK  248  A    between atoms: _626  and  _629
REMARK  249  A    between atoms: _629  and  _630
REMARK  250  A    between atoms: _640  and  _642
REMARK  251  A    between atoms: _642  and  _643
REMARK  252  A    between atoms: _642  and  _645
REMARK  253  A    between atoms: _645  and  _646
REMARK  254  A    between atoms: _646  and  _647
REMARK  255  A    between atoms: _649  and  _651
REMARK  256  A    between atoms: _651  and  _652
REMARK  257  A    between atoms: _651  and  _654
REMARK  258  A    between atoms: _654  and  _655
REMARK  259  A    between atoms: _658  and  _660
REMARK  260  A    between atoms: _660  and  _661
REMARK  261  A    between atoms: _660  and  _663
REMARK  262  A    between atoms: _663  and  _664
REMARK  263  A    between atoms: _669  and  _671
REMARK  264  A    between atoms: _671  and  _672
REMARK  265  A    between atoms: _674  and  _676
REMARK  266  A    between atoms: _676  and  _677
REMARK  267  A    between atoms: _676  and  _679
REMARK  268  A    between atoms: _679  and  _680
REMARK  269  A    between atoms: _685  and  _686
REMARK  270  A    between atoms: _688  and  _690
REMARK  271  A    between atoms: _690  and  _691
REMARK  272  A    between atoms: _690  and  _693
REMARK  273  A    between atoms: _693  and  _694
REMARK  274  A    between atoms: _694  and  _695
REMARK  275  A    between atoms: _698  and  _700
REMARK  276  A    between atoms: _700  and  _701
REMARK  277  A    between atoms: _700  and  _703
REMARK  278  A    between atoms: _703  and  _704
REMARK                            x       y       z     vdW  Elec       q    Type
REMARK                         _______ _______ _______ _____ _____    ______ ____
ROOT
ATOM      1  CB  ASN A   1      11.689  57.887  64.383  0.00  0.00    +0.110 C 
ENDROOT
BRANCH   1   2
ATOM      2  CG  ASN A   1      11.235  56.880  65.411  0.00  0.00    +0.221 C 
ATOM      3  ND2 ASN A   1      11.672  57.049  66.674  0.00  0.00    -0.329 N 
ATOM      4 HD21 ASN A   1      11.384  56.381  67.418  0.00  0.00    +0.145 HD
ATOM      5 HD22 ASN A   1      12.297  57.847  66.906  0.00  0.00    +0.145 HD
ATOM      6  OD1 ASN A   1      10.482  55.940  65.072  0.00  0.00    -0.275 OA
ENDBRANCH   1   2
BRANCH   1   7
ATOM      7  CA  ASN A   1      12.588  57.275  63.341  0.00  0.00    +0.142 C 
BRANCH   7   8
ATOM      8  N   ASN A   1      13.869  56.986  63.988  0.00  0.00    -0.239 NA
ATOM      9  H   ASN A   1      14.248  57.635  64.707  0.00  0.00    +0.142 HD
ENDBRANCH   7   8
BRANCH   7  10
ATOM     10  C   ASN A   1      12.558  58.123  62.101  0.00  0.00    +0.225 C 
ATOM     11  O   ASN A   1      11.618  58.047  61.307  0.00  0.00    -0.287 OA
ENDBRANCH   7  10
ENDBRANCH   1   7
TORSDOF 4
REMARK  Name = ../refined-set-2016/1h23/1h23_pocket.pdb
REMARK  278 active torsions:
REMARK  status: ('A' for Active; 'I' for Inactive)
REMARK    1  A    between atoms: _1  and  _3
REMARK    2  A    between atoms: _3  and  _4
REMARK    3  A    between atoms: _3  and  _6
REMARK    4  A    between atoms: _6  and  _7
REMARK    5  A    between atoms: _7  and  _8
REMARK    6  A    between atoms: _13  and  _15
REMARK    7  A    between atoms: _15  and  _16
REMARK    8  A    between atoms: _15  and  _18
REMARK    9  A    between atoms: _18  and  _19
REMARK   10  A    between atoms: _24  and  _25
REMARK   11  A    between atoms: _27  and  _29
REMARK   12  A    between atoms: _29  and  _30
REMARK   13  A    between atoms: _29  and  _32
REMARK   14  A    between atoms: _35  and  _37
REMARK   15  A    between atoms: _37  and  _38
REMARK   16  A    between atoms: _37  and  _40
REMARK   17  A    between atoms: _40  and  _41
REMARK   18  A    between atoms: _44  and  _46
REMARK   19  A    between atoms: _46  and  _47
REMARK   20  A    between atoms: _46  and  _49
REMARK   21  A    between atoms: _49  and  _50
REMARK   22  A    between atoms: _50  and  _51
REMARK   23  A    between atoms: _54  and  _56
REMARK   24  A    between atoms: _56  and  _57
REMARK   25  A    between atoms: _56  and  _59
REMARK   26  A    between atoms: _59  and  _60
REMARK   27  A    between atoms: _60  and  _61
REMARK   28  A    between atoms: _66  and  _68
REMARK   29  A    between atoms: _68  and  _69
REMARK   30  A    between atoms: _68  and  _71
REMARK   31  A    between atoms: _71  and  _72
REMARK   32  A    between atoms: _78  and  _80
REMARK   33  A    between atoms: _80  and  _81
REMARK   34  A    between atoms: _83  and  _85
REMARK   35  A    between atoms: _85  and  _86
REMARK   36  A    between atoms: _85  and  _88
REMARK   37  A    between atoms: _88  and  _89
REMARK   38  A    between atoms: _91  and  _93
REMARK   39  A    between atoms: _93  and  _94
REMARK   40  A    between atoms: _93  and  _96
REMARK   41  A    between atoms: _96  and  _97
REMARK   42  A    between atoms: _97  and  _98
REMARK   43  A    between atoms: _100  and  _102
REMARK   44  A    between atoms: _102  and  _103
REMARK   45  A    between atoms: _102  and  _105
REMARK   46  A    between atoms: _105  and  _106
REMARK   47  A    between atoms: _116  and  _118
REMARK   48  A    between atoms: _118  and  _119
REMARK   49  A    between atoms: _118  and  _121
REMARK   50  A    between atoms: _121  and  _122
REMARK   51  A    between atoms: _128  and  _129
REMARK   52  A    between atoms: _134  and  _136
REMARK   53  A    between atoms: _136  and  _137
REMARK   54  A    between atoms: _136  and  _139
REMARK   55  A    between atoms: _139  and  _140
REMARK   56  A    between atoms: _150  and  _152
REMARK   57  A    between atoms: _152  and  _153
REMARK   58  A    between atoms: _152  and  _155
REMARK   59  A    between atoms: _155  and  _156
REMARK   60  A    between atoms: _159  and  _161
REMARK   61  A    between atoms: _161  and  _162
REMARK   62  A    between atoms: _161  and  _164
REMARK   63  A    between atoms: _164  and  _165
REMARK   64  A    between atoms: _170  and  _171
REMARK   65  A    between atoms: _173  and  _175
REMARK   66  A    between atoms: _175  and  _176
REMARK   67  A    between atoms: _178  and  _180
REMARK   68  A    between atoms: _180  and  _181
REMARK   69  A    between atoms: _183  and  _185
REMARK   70  A    between atoms: _185  and  _186
REMARK   71  A    between atoms: _188  and  _190
REMARK   72  A    between atoms: _190  and  _191
REMARK   73  A    between atoms: _190  and  _193
REMARK   74  A    between atoms: _193  and  _194
REMARK   75  A    between atoms: _200  and  _202
REMARK   76  A    between atoms: _202  and  _203
REMARK   77  A    between atoms: _202  and  _205
REMARK   78  A    between atoms: _205  and  _206
REMARK   79  A    between atoms: _211  and  _212
REMARK   80  A    between atoms: _214  and  _216
REMARK   81  A    between atoms: _216  and  _217
REMARK   82  A    between atoms: _216  and  _219
REMARK   83  A    between atoms: _219  and  _220
REMARK   84  A    between atoms: _222  and  _224
REMARK   85  A    between atoms: _224  and  _225
REMARK   86  A    between atoms: _227  and  _229
REMARK   87  A    between atoms: _229  and  _230
REMARK   88  A    between atoms: _229  and  _232
REMARK   89  A    between atoms: _232  and  _233
REMARK   90  A    between atoms: _235  and  _237
REMARK   91  A    between atoms: _237  and  _238
REMARK   92  A    between atoms: _237  and  _240
REMARK   93  A    between atoms: _240  and  _241
REMARK   94  A    between atoms: _243  and  _245
REMARK   95  A    between atoms: _245  and  _246
REMARK   96  A    between atoms: _245  and  _248
REMARK   97  A    between atoms: _248  and  _249
REMARK   98  A    between atoms: _252  and  _254
REMARK   99  A    between atoms: _254  and  _255
REMARK  100  A    between atoms: _254  and  _257
REMARK  101  A    between atoms: _257  and  _258
REMARK  102  A    between atoms: _261  and  _263
REMARK  103  A    between atoms: _263  and  _264
REMARK  104  A    between atoms: _263  and  _266
REMARK  105  A    between atoms: _269  and  _271
REMARK  106  A    between atoms: _271  and  _272
REMARK  107  A    between atoms: _271  and  _274
REMARK  108  A    between atoms: _274  and  _275
REMARK  109  A    between atoms: _280  and  _281
REMARK  110  A    between atoms: _283  and  _285
REMARK  111  A    between atoms: _285  and  _286
REMARK  112  A    between atoms: _285  and  _288
REMARK  113  A    between atoms: _288  and  _289
REMARK  114  A    between atoms: _294  and  _295
REMARK  115  A    between atoms: _297  and  _299
REMARK  116  A    between atoms: _299  and  _300
REMARK  117  A    between atoms: _299  and  _302
REMARK  118  A    between atoms: _305  and  _307
REMARK  119  A    between atoms: _307  and  _308
REMARK  120  A    between atoms: _307  and  _310
REMARK  121  A    between atoms: _310  and  _311
REMARK  122  A    between atoms: _311  and  _312
REMARK  123  A    between atoms: _315  and  _317
REMARK  124  A    between atoms: _317  and  _318
REMARK  125  A    between atoms: _317  and  _320
REMARK  126  A    between atoms: _320  and  _321
REMARK  127  A    between atoms: _323  and  _325
REMARK  128  A    between atoms: _325  and  _326
REMARK  129  A    between atoms: _329  and  _331
REMARK  130  A    between atoms: _331  and  _332
REMARK  131  A    between atoms: _334  and  _336
REMARK  132  A    between atoms: _336  and  _337
REMARK  133  A    between atoms: _336  and  _339
REMARK  134  A    between atoms: _339  and  _340
REMARK  135  A    between atoms: _340  and  _341
REMARK  136  A    between atoms: _346  and  _348
REMARK  137  A    between atoms: _348  and  _349
REMARK  138  A    between atoms: _348  and  _351
REMARK  139  A    between atoms: _351  and  _352
REMARK  140  A    between atoms: _354  and  _356
REMARK  141  A    between atoms: _356  and  _357
REMARK  142  A    between atoms: _356  and  _359
REMARK  143  A    between atoms: _359  and  _360
REMARK  144  A    between atoms: _360  and  _361
REMARK  145  A    between atoms: _364  and  _366
REMARK  146  A    between atoms: _366  and  _367
REMARK  147  A    between atoms: _366  and  _369
REMARK  148  A    between atoms: _369  and  _370
REMARK  149  A    between atoms: _380  and  _382
REMARK  150  A    between atoms: _382  and  _383
REMARK  151  A    between atoms: _382  and  _385
REMARK  152  A    between atoms: _385  and  _386
REMARK  153  A    between atoms: _391  and  _393
REMARK  154  A    between atoms: _393  and  _394
REMARK  155  A    between atoms: _393  and  _396
REMARK  156  A    between atoms: _396  and  _397
REMARK  157  A    between atoms: _400  and  _402
REMARK  158  A    between atoms: _402  and  _403
REMARK  159  A    between atoms: _402  and  _405
REMARK  160  A    between atoms: _405  and  _406
REMARK  161  A    between atoms: _412  and  _414
REMARK  162  A    between atoms: _414  and  _415
REMARK  163  A    between atoms: _414  and  _417
REMARK  164  A    between atoms: _417  and  _418
REMARK  165  A    between atoms: _421  and  _423
REMARK  166  A    between atoms: _423  and  _424
REMARK  167  A    between atoms: _423  and  _426
REMARK  168  A    between atoms: _426  and  _427
REMARK  169  A    between atoms: _429  and  _431
REMARK  170  A    between atoms: _431  and  _432
REMARK  171  A    between atoms: _431  and  _434
REMARK  172  A    between atoms: _434  and  _435
REMARK  173  A    between atoms: _438  and  _440
REMARK  174  A    between atoms: _440  and  _441
REMARK  175  A    between atoms: _440  and  _443
REMARK  176  A    between atoms: _443  and  _444
REMARK  177  A    between atoms: _450  and  _452
REMARK  178  A    between atoms: _452  and  _453
REMARK  179  A    between atoms: _452  and  _455
REMARK  180  A    between atoms: _455  and  _456
REMARK  181  A    between atoms: _456  and  _457
REMARK  182  A    between atoms: _457  and  _458
REMARK  183  A    between atoms: _467  and  _469
REMARK  184  A    between atoms: _469  and  _470
REMARK  185  A    between atoms: _469  and  _472
REMARK  186  A    between atoms: _472  and  _473
REMARK  187  A    between atoms: _479  and  _481
REMARK  188  A    between atoms: _481  and  _482
REMARK  189  A    between atoms: _481  and  _484
REMARK  190  A    between atoms: _484  and  _485
REMARK  191  A    between atoms: _487  and  _489
REMARK  192  A    between atoms: _489  and  _490
REMARK  193  A    between atoms: _489  and  _492
REMARK  194  A    between atoms: _492  and  _493
REMARK  195  A    between atoms: _498  and  _500
REMARK  196  A    between atoms: _500  and  _501
REMARK  197  A    between atoms: _500  and  _503
REMARK  198  A    between atoms: _503  and  _504
REMARK  199  A    between atoms: _504  and  _505
REMARK  200  A    between atoms: _508  and  _510
REMARK  201  A    between atoms: _510  and  _511
REMARK  202  A    between atoms: _513  and  _515
REMARK  203  A    between atoms: _515  and  _516
REMARK  204  A    between atoms: _515  and  _518
REMARK  205  A    between atoms: _518  and  _519
REMARK  206  A    between atoms: _521  and  _523
REMARK  207  A    between atoms: _523  and  _524
REMARK  208  A    between atoms: _523  and  _526
REMARK  209  A    between atoms: _526  and  _527
REMARK  210  A    between atoms: _533  and  _535
REMARK  211  A    between atoms: _535  and  _536
REMARK  212  A    between atoms: _535  and  _538
REMARK  213  A    between atoms: _538  and  _539
REMARK  214  A    between atoms: _545  and  _547
REMARK  215  A    between atoms: _547  and  _548
REMARK  216  A    between atoms: _547  and  _550
REMARK  217  A    between atoms: _550  and  _551
REMARK  218  A    between atoms: _554  and  _556
REMARK  219  A    between atoms: _556  and  _557
REMARK  220  A    between atoms: _556  and  _559
REMARK  221  A    between atoms: _559  and  _560
REMARK  222  A    between atoms: _563  and  _565
REMARK  223  A    between atoms: _565  and  _566
REMARK  224  A    between atoms: _565  and  _568
REMARK  225  A    between atoms: _568  and  _569
REMARK  226  A    between atoms: _574  and  _575
REMARK  227  A    between atoms: _577  and  _579
REMARK  228  A    between atoms: _579  and  _580
REMARK  229  A    between atoms: _582  and  _584
REMARK  230  A    between atoms: _584  and  _585
REMARK  231  A    between atoms: _588  and  _590
REMARK  232  A    between atoms: _590  and  _591
REMARK  233  A    between atoms: _590  and  _593
REMARK  234  A    between atoms: _593  and  _594
REMARK  235  A    between atoms: _597  and  _599
REMARK  236  A    between atoms: _599  and  _600
REMARK  237  A    between atoms: _599  and  _602
REMARK  238  A    between atoms: _602  and  _603
REMARK  239  A    between atoms: _605  and  _607
REMARK  240  A    between atoms: _607  and  _608
REMARK  241  A    between atoms: _607  and  _610
REMARK  242  A    between atoms: _613  and  _615
REMARK  243  A    between atoms: _615  and  _616
REMARK  244  A    between atoms: _615  and  _618
REMARK  245  A    between atoms: _618  and  _619
REMARK  246  A    between atoms: _624  and  _626
REMARK  247  A    between atoms: _626  and  _627
REMARK  248  A    between atoms: _626  and  _629
REMARK  249  A    between atoms: _629  and  _630
REMARK  250  A    between atoms: _640  and  _642
REMARK  251  A    between atoms: _642  and  _643
REMARK  252  A    between atoms: _642  and  _645
REMARK  253  A    between atoms: _645  and  _646
REMARK  254  A    between atoms: _646  and  _647
REMARK  255  A    between atoms: _649  and  _651
REMARK  256  A    between atoms: _651  and  _652
REMARK  257  A    between atoms: _651  and  _654
REMARK  258  A    between atoms: _654  and  _655
REMARK  259  A    between atoms: _658  and  _660
REMARK  260  A    between atoms: _660  and  _661
REMARK  261  A    between atoms: _660  and  _663
REMARK  262  A    between atoms: _663  and  _664
REMARK  263  A    between atoms: _669  and  _671
REMARK  264  A    between atoms: _671  and  _672
REMARK  265  A    between atoms: _674  and  _676
REMARK  266  A    between atoms: _676  and  _677
REMARK  267  A    between atoms: _676  and  _679
REMARK  268  A    between atoms: _679  and  _680
REMARK  269  A    between atoms: _685  and  _686
REMARK  270  A    between atoms: _688  and  _690
REMARK  271  A    between atoms: _690  and  _691
REMARK  272  A    between atoms: _690  and  _693
REMARK  273  A    between atoms: _693  and  _694
REMARK  274  A    between atoms: _694  and  _695
REMARK  275  A    between atoms: _698  and  _700
REMARK  276  A    between atoms: _700  and  _701
REMARK  277  A    between atoms: _700  and  _703
REMARK  278  A    between atoms: _703  and  _704
REMARK                            x       y       z     vdW  Elec       q    Type
REMARK                         _______ _______ _______ _____ _____    ______ ____
ROOT
ATOM      1  CG  TRP A   1       8.882  74.274  71.253  0.00  0.00    -0.002 A 
ATOM      2  CD2 TRP A   1       7.825  73.549  71.902  0.00  0.00    +0.013 A 
ATOM      3  CE3 TRP A   1       7.650  73.030  73.189  0.00  0.00    +0.001 A 
ATOM      4  CZ3 TRP A   1       6.454  72.355  73.486  0.00  0.00    +0.000 A 
ATOM      5  CH2 TRP A   1       5.435  72.205  72.502  0.00  0.00    +0.001 A 
ATOM      6  CZ2 TRP A   1       5.582  72.714  71.232  0.00  0.00    +0.017 A 
ATOM      7  CE2 TRP A   1       6.782  73.384  70.945  0.00  0.00    +0.056 A 
ATOM      8  NE1 TRP A   1       7.193  73.983  69.790  0.00  0.00    -0.352 N 
ATOM      9  HE1 TRP A   1       6.646  74.031  68.907  0.00  0.00    +0.166 HD
ATOM     10  CD1 TRP A   1       8.448  74.513  69.983  0.00  0.00    +0.068 A 
ENDROOT
BRANCH   1  11
ATOM     11  CB  TRP A   1      10.229  74.669  71.839  0.00  0.00    +0.053 C 
BRANCH  11  12
ATOM     12  CA  TRP A   1      10.182  75.839  72.856  0.00  0.00    +0.137 C 
BRANCH  12  13
ATOM     13  N   TRP A   1       9.872  77.114  72.183  0.00  0.00    -0.239 NA
ATOM     14  H   TRP A   1      10.014  77.186  71.155  0.00  0.00    +0.142 HD
ENDBRANCH  12  13
BRANCH  12  15
ATOM     15  C   TRP A   1      11.530  75.935  73.570  0.00  0.00    +0.224 C 
ATOM     16  O   TRP A   1      12.409  76.686  73.143  0.00  0.00    -0.287 OA
ENDBRANCH  12  15
ENDBRANCH  11  12
ENDBRANCH   1  11
TORSDOF 4
REMARK  Name = ../refined-set-2016/1h23/1h23_pocket.pdb
REMARK  278 active torsions:
REMARK  status: ('A' for Active; 'I' for Inactive)
REMARK    1  A    between atoms: _1  and  _3
REMARK    2  A    between atoms: _3  and  _4
REMARK    3  A    between atoms: _3  and  _6
REMARK    4  A    between atoms: _6  and  _7
REMARK    5  A    between atoms: _7  and  _8
REMARK    6  A    between atoms: _13  and  _15
REMARK    7  A    between atoms: _15  and  _16
REMARK    8  A    between atoms: _15  and  _18
REMARK    9  A    between atoms: _18  and  _19
REMARK   10  A    between atoms: _24  and  _25
REMARK   11  A    between atoms: _27  and  _29
REMARK   12  A    between atoms: _29  and  _30
REMARK   13  A    between atoms: _29  and  _32
REMARK   14  A    between atoms: _35  and  _37
REMARK   15  A    between atoms: _37  and  _38
REMARK   16  A    between atoms: _37  and  _40
REMARK   17  A    between atoms: _40  and  _41
REMARK   18  A    between atoms: _44  and  _46
REMARK   19  A    between atoms: _46  and  _47
REMARK   20  A    between atoms: _46  and  _49
REMARK   21  A    between atoms: _49  and  _50
REMARK   22  A    between atoms: _50  and  _51
REMARK   23  A    between atoms: _54  and  _56
REMARK   24  A    between atoms: _56  and  _57
REMARK   25  A    between atoms: _56  and  _59
REMARK   26  A    between atoms: _59  and  _60
REMARK   27  A    between atoms: _60  and  _61
REMARK   28  A    between atoms: _66  and  _68
REMARK   29  A    between atoms: _68  and  _69
REMARK   30  A    between atoms: _68  and  _71
REMARK   31  A    between atoms: _71  and  _72
REMARK   32  A    between atoms: _78  and  _80
REMARK   33  A    between atoms: _80  and  _81
REMARK   34  A    between atoms: _83  and  _85
REMARK   35  A    between atoms: _85  and  _86
REMARK   36  A    between atoms: _85  and  _88
REMARK   37  A    between atoms: _88  and  _89
REMARK   38  A    between atoms: _91  and  _93
REMARK   39  A    between atoms: _93  and  _94
REMARK   40  A    between atoms: _93  and  _96
REMARK   41  A    between atoms: _96  and  _97
REMARK   42  A    between atoms: _97  and  _98
REMARK   43  A    between atoms: _100  and  _102
REMARK   44  A    between atoms: _102  and  _103
REMARK   45  A    between atoms: _102  and  _105
REMARK   46  A    between atoms: _105  and  _106
REMARK   47  A    between atoms: _116  and  _118
REMARK   48  A    between atoms: _118  and  _119
REMARK   49  A    between atoms: _118  and  _121
REMARK   50  A    between atoms: _121  and  _122
REMARK   51  A    between atoms: _128  and  _129
REMARK   52  A    between atoms: _134  and  _136
REMARK   53  A    between atoms: _136  and  _137
REMARK   54  A    between atoms: _136  and  _139
REMARK   55  A    between atoms: _139  and  _140
REMARK   56  A    between atoms: _150  and  _152
REMARK   57  A    between atoms: _152  and  _153
REMARK   58  A    between atoms: _152  and  _155
REMARK   59  A    between atoms: _155  and  _156
REMARK   60  A    between atoms: _159  and  _161
REMARK   61  A    between atoms: _161  and  _162
REMARK   62  A    between atoms: _161  and  _164
REMARK   63  A    between atoms: _164  and  _165
REMARK   64  A    between atoms: _170  and  _171
REMARK   65  A    between atoms: _173  and  _175
REMARK   66  A    between atoms: _175  and  _176
REMARK   67  A    between atoms: _178  and  _180
REMARK   68  A    between atoms: _180  and  _181
REMARK   69  A    between atoms: _183  and  _185
REMARK   70  A    between atoms: _185  and  _186
REMARK   71  A    between atoms: _188  and  _190
REMARK   72  A    between atoms: _190  and  _191
REMARK   73  A    between atoms: _190  and  _193
REMARK   74  A    between atoms: _193  and  _194
REMARK   75  A    between atoms: _200  and  _202
REMARK   76  A    between atoms: _202  and  _203
REMARK   77  A    between atoms: _202  and  _205
REMARK   78  A    between atoms: _205  and  _206
REMARK   79  A    between atoms: _211  and  _212
REMARK   80  A    between atoms: _214  and  _216
REMARK   81  A    between atoms: _216  and  _217
REMARK   82  A    between atoms: _216  and  _219
REMARK   83  A    between atoms: _219  and  _220
REMARK   84  A    between atoms: _222  and  _224
REMARK   85  A    between atoms: _224  and  _225
REMARK   86  A    between atoms: _227  and  _229
REMARK   87  A    between atoms: _229  and  _230
REMARK   88  A    between atoms: _229  and  _232
REMARK   89  A    between atoms: _232  and  _233
REMARK   90  A    between atoms: _235  and  _237
REMARK   91  A    between atoms: _237  and  _238
REMARK   92  A    between atoms: _237  and  _240
REMARK   93  A    between atoms: _240  and  _241
REMARK   94  A    between atoms: _243  and  _245
REMARK   95  A    between atoms: _245  and  _246
REMARK   96  A    between atoms: _245  and  _248
REMARK   97  A    between atoms: _248  and  _249
REMARK   98  A    between atoms: _252  and  _254
REMARK   99  A    between atoms: _254  and  _255
REMARK  100  A    between atoms: _254  and  _257
REMARK  101  A    between atoms: _257  and  _258
REMARK  102  A    between atoms: _261  and  _263
REMARK  103  A    between atoms: _263  and  _264
REMARK  104  A    between atoms: _263  and  _266
REMARK  105  A    between atoms: _269  and  _271
REMARK  106  A    between atoms: _271  and  _272
REMARK  107  A    between atoms: _271  and  _274
REMARK  108  A    between atoms: _274  and  _275
REMARK  109  A    between atoms: _280  and  _281
REMARK  110  A    between atoms: _283  and  _285
REMARK  111  A    between atoms: _285  and  _286
REMARK  112  A    between atoms: _285  and  _288
REMARK  113  A    between atoms: _288  and  _289
REMARK  114  A    between atoms: _294  and  _295
REMARK  115  A    between atoms: _297  and  _299
REMARK  116  A    between atoms: _299  and  _300
REMARK  117  A    between atoms: _299  and  _302
REMARK  118  A    between atoms: _305  and  _307
REMARK  119  A    between atoms: _307  and  _308
REMARK  120  A    between atoms: _307  and  _310
REMARK  121  A    between atoms: _310  and  _311
REMARK  122  A    between atoms: _311  and  _312
REMARK  123  A    between atoms: _315  and  _317
REMARK  124  A    between atoms: _317  and  _318
REMARK  125  A    between atoms: _317  and  _320
REMARK  126  A    between atoms: _320  and  _321
REMARK  127  A    between atoms: _323  and  _325
REMARK  128  A    between atoms: _325  and  _326
REMARK  129  A    between atoms: _329  and  _331
REMARK  130  A    between atoms: _331  and  _332
REMARK  131  A    between atoms: _334  and  _336
REMARK  132  A    between atoms: _336  and  _337
REMARK  133  A    between atoms: _336  and  _339
REMARK  134  A    between atoms: _339  and  _340
REMARK  135  A    between atoms: _340  and  _341
REMARK  136  A    between atoms: _346  and  _348
REMARK  137  A    between atoms: _348  and  _349
REMARK  138  A    between atoms: _348  and  _351
REMARK  139  A    between atoms: _351  and  _352
REMARK  140  A    between atoms: _354  and  _356
REMARK  141  A    between atoms: _356  and  _357
REMARK  142  A    between atoms: _356  and  _359
REMARK  143  A    between atoms: _359  and  _360
REMARK  144  A    between atoms: _360  and  _361
REMARK  145  A    between atoms: _364  and  _366
REMARK  146  A    between atoms: _366  and  _367
REMARK  147  A    between atoms: _366  and  _369
REMARK  148  A    between atoms: _369  and  _370
REMARK  149  A    between atoms: _380  and  _382
REMARK  150  A    between atoms: _382  and  _383
REMARK  151  A    between atoms: _382  and  _385
REMARK  152  A    between atoms: _385  and  _386
REMARK  153  A    between atoms: _391  and  _393
REMARK  154  A    between atoms: _393  and  _394
REMARK  155  A    between atoms: _393  and  _396
REMARK  156  A    between atoms: _396  and  _397
REMARK  157  A    between atoms: _400  and  _402
REMARK  158  A    between atoms: _402  and  _403
REMARK  159  A    between atoms: _402  and  _405
REMARK  160  A    between atoms: _405  and  _406
REMARK  161  A    between atoms: _412  and  _414
REMARK  162  A    between atoms: _414  and  _415
REMARK  163  A    between atoms: _414  and  _417
REMARK  164  A    between atoms: _417  and  _418
REMARK  165  A    between atoms: _421  and  _423
REMARK  166  A    between atoms: _423  and  _424
REMARK  167  A    between atoms: _423  and  _426
REMARK  168  A    between atoms: _426  and  _427
REMARK  169  A    between atoms: _429  and  _431
REMARK  170  A    between atoms: _431  and  _432
REMARK  171  A    between atoms: _431  and  _434
REMARK  172  A    between atoms: _434  and  _435
REMARK  173  A    between atoms: _438  and  _440
REMARK  174  A    between atoms: _440  and  _441
REMARK  175  A    between atoms: _440  and  _443
REMARK  176  A    between atoms: _443  and  _444
REMARK  177  A    between atoms: _450  and  _452
REMARK  178  A    between atoms: _452  and  _453
REMARK  179  A    between atoms: _452  and  _455
REMARK  180  A    between atoms: _455  and  _456
REMARK  181  A    between atoms: _456  and  _457
REMARK  182  A    between atoms: _457  and  _458
REMARK  183  A    between atoms: _467  and  _469
REMARK  184  A    between atoms: _469  and  _470
REMARK  185  A    between atoms: _469  and  _472
REMARK  186  A    between atoms: _472  and  _473
REMARK  187  A    between atoms: _479  and  _481
REMARK  188  A    between atoms: _481  and  _482
REMARK  189  A    between atoms: _481  and  _484
REMARK  190  A    between atoms: _484  and  _485
REMARK  191  A    between atoms: _487  and  _489
REMARK  192  A    between atoms: _489  and  _490
REMARK  193  A    between atoms: _489  and  _492
REMARK  194  A    between atoms: _492  and  _493
REMARK  195  A    between atoms: _498  and  _500
REMARK  196  A    between atoms: _500  and  _501
REMARK  197  A    between atoms: _500  and  _503
REMARK  198  A    between atoms: _503  and  _504
REMARK  199  A    between atoms: _504  and  _505
REMARK  200  A    between atoms: _508  and  _510
REMARK  201  A    between atoms: _510  and  _511
REMARK  202  A    between atoms: _513  and  _515
REMARK  203  A    between atoms: _515  and  _516
REMARK  204  A    between atoms: _515  and  _518
REMARK  205  A    between atoms: _518  and  _519
REMARK  206  A    between atoms: _521  and  _523
REMARK  207  A    between atoms: _523  and  _524
REMARK  208  A    between atoms: _523  and  _526
REMARK  209  A    between atoms: _526  and  _527
REMARK  210  A    between atoms: _533  and  _535
REMARK  211  A    between atoms: _535  and  _536
REMARK  212  A    between atoms: _535  and  _538
REMARK  213  A    between atoms: _538  and  _539
REMARK  214  A    between atoms: _545  and  _547
REMARK  215  A    between atoms: _547  and  _548
REMARK  216  A    between atoms: _547  and  _550
REMARK  217  A    between atoms: _550  and  _551
REMARK  218  A    between atoms: _554  and  _556
REMARK  219  A    between atoms: _556  and  _557
REMARK  220  A    between atoms: _556  and  _559
REMARK  221  A    between atoms: _559  and  _560
REMARK  222  A    between atoms: _563  and  _565
REMARK  223  A    between atoms: _565  and  _566
REMARK  224  A    between atoms: _565  and  _568
REMARK  225  A    between atoms: _568  and  _569
REMARK  226  A    between atoms: _574  and  _575
REMARK  227  A    between atoms: _577  and  _579
REMARK  228  A    between atoms: _579  and  _580
REMARK  229  A    between atoms: _582  and  _584
REMARK  230  A    between atoms: _584  and  _585
REMARK  231  A    between atoms: _588  and  _590
REMARK  232  A    between atoms: _590  and  _591
REMARK  233  A    between atoms: _590  and  _593
REMARK  234  A    between atoms: _593  and  _594
REMARK  235  A    between atoms: _597  and  _599
REMARK  236  A    between atoms: _599  and  _600
REMARK  237  A    between atoms: _599  and  _602
REMARK  238  A    between atoms: _602  and  _603
REMARK  239  A    between atoms: _605  and  _607
REMARK  240  A    between atoms: _607  and  _608
REMARK  241  A    between atoms: _607  and  _610
REMARK  242  A    between atoms: _613  and  _615
REMARK  243  A    between atoms: _615  and  _616
REMARK  244  A    between atoms: _615  and  _618
REMARK  245  A    between atoms: _618  and  _619
REMARK  246  A    between atoms: _624  and  _626
REMARK  247  A    between atoms: _626  and  _627
REMARK  248  A    between atoms: _626  and  _629
REMARK  249  A    between atoms: _629  and  _630
REMARK  250  A    between atoms: _640  and  _642
REMARK  251  A    between atoms: _642  and  _643
REMARK  252  A    between atoms: _642  and  _645
REMARK  253  A    between atoms: _645  and  _646
REMARK  254  A    between atoms: _646  and  _647
REMARK  255  A    between atoms: _649  and  _651
REMARK  256  A    between atoms: _651  and  _652
REMARK  257  A    between atoms: _651  and  _654
REMARK  258  A    between atoms: _654  and  _655
REMARK  259  A    between atoms: _658  and  _660
REMARK  260  A    between atoms: _660  and  _661
REMARK  261  A    between atoms: _660  and  _663
REMARK  262  A    between atoms: _663  and  _664
REMARK  263  A    between atoms: _669  and  _671
REMARK  264  A    between atoms: _671  and  _672
REMARK  265  A    between atoms: _674  and  _676
REMARK  266  A    between atoms: _676  and  _677
REMARK  267  A    between atoms: _676  and  _679
REMARK  268  A    between atoms: _679  and  _680
REMARK  269  A    between atoms: _685  and  _686
REMARK  270  A    between atoms: _688  and  _690
REMARK  271  A    between atoms: _690  and  _691
REMARK  272  A    between atoms: _690  and  _693
REMARK  273  A    between atoms: _693  and  _694
REMARK  274  A    between atoms: _694  and  _695
REMARK  275  A    between atoms: _698  and  _700
REMARK  276  A    between atoms: _700  and  _701
REMARK  277  A    between atoms: _700  and  _703
REMARK  278  A    between atoms: _703  and  _704
REMARK                            x       y       z     vdW  Elec       q    Type
REMARK                         _______ _______ _______ _____ _____    ______ ____
ROOT
ATOM      1  CA  MET A   1      14.915  70.686  72.173  0.00  0.00    +0.134 C 
ENDROOT
BRANCH   1   2
ATOM      2  N   MET A   1      15.537  71.357  73.315  0.00  0.00    -0.239 NA
ATOM      3  H   MET A   1      15.109  72.219  73.708  0.00  0.00    +0.142 HD
ENDBRANCH   1   2
BRANCH   1   4
ATOM      4  C   MET A   1      15.622  70.896  70.858  0.00  0.00    +0.224 C 
ATOM      5  O   MET A   1      15.381  70.148  69.906  0.00  0.00    -0.287 OA
ENDBRANCH   1   4
BRANCH   1   6
ATOM      6  CB  MET A   1      13.431  71.082  72.065  0.00  0.00    +0.037 C 
BRANCH   6   7
ATOM      7  CG  MET A   1      12.628  70.524  73.281  0.00  0.00    +0.059 C 
BRANCH   7   8
ATOM      8  SD  MET A   1      10.885  70.959  73.336  0.00  0.00    -0.139 S 
ATOM      9  CE  MET A   1      10.194  69.725  71.994  0.00  0.00    +0.069 C 
ENDBRANCH   7   8
ENDBRANCH   6   7
ENDBRANCH   1   6
TORSDOF 5
REMARK  Name = ../refined-set-2016/1h23/1h23_pocket.pdb
REMARK  278 active torsions:
REMARK  status: ('A' for Active; 'I' for Inactive)
REMARK    1  A    between atoms: _1  and  _3
REMARK    2  A    between atoms: _3  and  _4
REMARK    3  A    between atoms: _3  and  _6
REMARK    4  A    between atoms: _6  and  _7
REMARK    5  A    between atoms: _7  and  _8
REMARK    6  A    between atoms: _13  and  _15
REMARK    7  A    between atoms: _15  and  _16
REMARK    8  A    between atoms: _15  and  _18
REMARK    9  A    between atoms: _18  and  _19
REMARK   10  A    between atoms: _24  and  _25
REMARK   11  A    between atoms: _27  and  _29
REMARK   12  A    between atoms: _29  and  _30
REMARK   13  A    between atoms: _29  and  _32
REMARK   14  A    between atoms: _35  and  _37
REMARK   15  A    between atoms: _37  and  _38
REMARK   16  A    between atoms: _37  and  _40
REMARK   17  A    between atoms: _40  and  _41
REMARK   18  A    between atoms: _44  and  _46
REMARK   19  A    between atoms: _46  and  _47
REMARK   20  A    between atoms: _46  and  _49
REMARK   21  A    between atoms: _49  and  _50
REMARK   22  A    between atoms: _50  and  _51
REMARK   23  A    between atoms: _54  and  _56
REMARK   24  A    between atoms: _56  and  _57
REMARK   25  A    between atoms: _56  and  _59
REMARK   26  A    between atoms: _59  and  _60
REMARK   27  A    between atoms: _60  and  _61
REMARK   28  A    between atoms: _66  and  _68
REMARK   29  A    between atoms: _68  and  _69
REMARK   30  A    between atoms: _68  and  _71
REMARK   31  A    between atoms: _71  and  _72
REMARK   32  A    between atoms: _78  and  _80
REMARK   33  A    between atoms: _80  and  _81
REMARK   34  A    between atoms: _83  and  _85
REMARK   35  A    between atoms: _85  and  _86
REMARK   36  A    between atoms: _85  and  _88
REMARK   37  A    between atoms: _88  and  _89
REMARK   38  A    between atoms: _91  and  _93
REMARK   39  A    between atoms: _93  and  _94
REMARK   40  A    between atoms: _93  and  _96
REMARK   41  A    between atoms: _96  and  _97
REMARK   42  A    between atoms: _97  and  _98
REMARK   43  A    between atoms: _100  and  _102
REMARK   44  A    between atoms: _102  and  _103
REMARK   45  A    between atoms: _102  and  _105
REMARK   46  A    between atoms: _105  and  _106
REMARK   47  A    between atoms: _116  and  _118
REMARK   48  A    between atoms: _118  and  _119
REMARK   49  A    between atoms: _118  and  _121
REMARK   50  A    between atoms: _121  and  _122
REMARK   51  A    between atoms: _128  and  _129
REMARK   52  A    between atoms: _134  and  _136
REMARK   53  A    between atoms: _136  and  _137
REMARK   54  A    between atoms: _136  and  _139
REMARK   55  A    between atoms: _139  and  _140
REMARK   56  A    between atoms: _150  and  _152
REMARK   57  A    between atoms: _152  and  _153
REMARK   58  A    between atoms: _152  and  _155
REMARK   59  A    between atoms: _155  and  _156
REMARK   60  A    between atoms: _159  and  _161
REMARK   61  A    between atoms: _161  and  _162
REMARK   62  A    between atoms: _161  and  _164
REMARK   63  A    between atoms: _164  and  _165
REMARK   64  A    between atoms: _170  and  _171
REMARK   65  A    between atoms: _173  and  _175
REMARK   66  A    between atoms: _175  and  _176
REMARK   67  A    between atoms: _178  and  _180
REMARK   68  A    between atoms: _180  and  _181
REMARK   69  A    between atoms: _183  and  _185
REMARK   70  A    between atoms: _185  and  _186
REMARK   71  A    between atoms: _188  and  _190
REMARK   72  A    between atoms: _190  and  _191
REMARK   73  A    between atoms: _190  and  _193
REMARK   74  A    between atoms: _193  and  _194
REMARK   75  A    between atoms: _200  and  _202
REMARK   76  A    between atoms: _202  and  _203
REMARK   77  A    between atoms: _202  and  _205
REMARK   78  A    between atoms: _205  and  _206
REMARK   79  A    between atoms: _211  and  _212
REMARK   80  A    between atoms: _214  and  _216
REMARK   81  A    between atoms: _216  and  _217
REMARK   82  A    between atoms: _216  and  _219
REMARK   83  A    between atoms: _219  and  _220
REMARK   84  A    between atoms: _222  and  _224
REMARK   85  A    between atoms: _224  and  _225
REMARK   86  A    between atoms: _227  and  _229
REMARK   87  A    between atoms: _229  and  _230
REMARK   88  A    between atoms: _229  and  _232
REMARK   89  A    between atoms: _232  and  _233
REMARK   90  A    between atoms: _235  and  _237
REMARK   91  A    between atoms: _237  and  _238
REMARK   92  A    between atoms: _237  and  _240
REMARK   93  A    between atoms: _240  and  _241
REMARK   94  A    between atoms: _243  and  _245
REMARK   95  A    between atoms: _245  and  _246
REMARK   96  A    between atoms: _245  and  _248
REMARK   97  A    between atoms: _248  and  _249
REMARK   98  A    between atoms: _252  and  _254
REMARK   99  A    between atoms: _254  and  _255
REMARK  100  A    between atoms: _254  and  _257
REMARK  101  A    between atoms: _257  and  _258
REMARK  102  A    between atoms: _261  and  _263
REMARK  103  A    between atoms: _263  and  _264
REMARK  104  A    between atoms: _263  and  _266
REMARK  105  A    between atoms: _269  and  _271
REMARK  106  A    between atoms: _271  and  _272
REMARK  107  A    between atoms: _271  and  _274
REMARK  108  A    between atoms: _274  and  _275
REMARK  109  A    between atoms: _280  and  _281
REMARK  110  A    between atoms: _283  and  _285
REMARK  111  A    between atoms: _285  and  _286
REMARK  112  A    between atoms: _285  and  _288
REMARK  113  A    between atoms: _288  and  _289
REMARK  114  A    between atoms: _294  and  _295
REMARK  115  A    between atoms: _297  and  _299
REMARK  116  A    between atoms: _299  and  _300
REMARK  117  A    between atoms: _299  and  _302
REMARK  118  A    between atoms: _305  and  _307
REMARK  119  A    between atoms: _307  and  _308
REMARK  120  A    between atoms: _307  and  _310
REMARK  121  A    between atoms: _310  and  _311
REMARK  122  A    between atoms: _311  and  _312
REMARK  123  A    between atoms: _315  and  _317
REMARK  124  A    between atoms: _317  and  _318
REMARK  125  A    between atoms: _317  and  _320
REMARK  126  A    between atoms: _320  and  _321
REMARK  127  A    between atoms: _323  and  _325
REMARK  128  A    between atoms: _325  and  _326
REMARK  129  A    between atoms: _329  and  _331
REMARK  130  A    between atoms: _331  and  _332
REMARK  131  A    between atoms: _334  and  _336
REMARK  132  A    between atoms: _336  and  _337
REMARK  133  A    between atoms: _336  and  _339
REMARK  134  A    between atoms: _339  and  _340
REMARK  135  A    between atoms: _340  and  _341
REMARK  136  A    between atoms: _346  and  _348
REMARK  137  A    between atoms: _348  and  _349
REMARK  138  A    between atoms: _348  and  _351
REMARK  139  A    between atoms: _351  and  _352
REMARK  140  A    between atoms: _354  and  _356
REMARK  141  A    between atoms: _356  and  _357
REMARK  142  A    between atoms: _356  and  _359
REMARK  143  A    between atoms: _359  and  _360
REMARK  144  A    between atoms: _360  and  _361
REMARK  145  A    between atoms: _364  and  _366
REMARK  146  A    between atoms: _366  and  _367
REMARK  147  A    between atoms: _366  and  _369
REMARK  148  A    between atoms: _369  and  _370
REMARK  149  A    between atoms: _380  and  _382
REMARK  150  A    between atoms: _382  and  _383
REMARK  151  A    between atoms: _382  and  _385
REMARK  152  A    between atoms: _385  and  _386
REMARK  153  A    between atoms: _391  and  _393
REMARK  154  A    between atoms: _393  and  _394
REMARK  155  A    between atoms: _393  and  _396
REMARK  156  A    between atoms: _396  and  _397
REMARK  157  A    between atoms: _400  and  _402
REMARK  158  A    between atoms: _402  and  _403
REMARK  159  A    between atoms: _402  and  _405
REMARK  160  A    between atoms: _405  and  _406
REMARK  161  A    between atoms: _412  and  _414
REMARK  162  A    between atoms: _414  and  _415
REMARK  163  A    between atoms: _414  and  _417
REMARK  164  A    between atoms: _417  and  _418
REMARK  165  A    between atoms: _421  and  _423
REMARK  166  A    between atoms: _423  and  _424
REMARK  167  A    between atoms: _423  and  _426
REMARK  168  A    between atoms: _426  and  _427
REMARK  169  A    between atoms: _429  and  _431
REMARK  170  A    between atoms: _431  and  _432
REMARK  171  A    between atoms: _431  and  _434
REMARK  172  A    between atoms: _434  and  _435
REMARK  173  A    between atoms: _438  and  _440
REMARK  174  A    between atoms: _440  and  _441
REMARK  175  A    between atoms: _440  and  _443
REMARK  176  A    between atoms: _443  and  _444
REMARK  177  A    between atoms: _450  and  _452
REMARK  178  A    between atoms: _452  and  _453
REMARK  179  A    between atoms: _452  and  _455
REMARK  180  A    between atoms: _455  and  _456
REMARK  181  A    between atoms: _456  and  _457
REMARK  182  A    between atoms: _457  and  _458
REMARK  183  A    between atoms: _467  and  _469
REMARK  184  A    between atoms: _469  and  _470
REMARK  185  A    between atoms: _469  and  _472
REMARK  186  A    between atoms: _472  and  _473
REMARK  187  A    between atoms: _479  and  _481
REMARK  188  A    between atoms: _481  and  _482
REMARK  189  A    between atoms: _481  and  _484
REMARK  190  A    between atoms: _484  and  _485
REMARK  191  A    between atoms: _487  and  _489
REMARK  192  A    between atoms: _489  and  _490
REMARK  193  A    between atoms: _489  and  _492
REMARK  194  A    between atoms: _492  and  _493
REMARK  195  A    between atoms: _498  and  _500
REMARK  196  A    between atoms: _500  and  _501
REMARK  197  A    between atoms: _500  and  _503
REMARK  198  A    between atoms: _503  and  _504
REMARK  199  A    between atoms: _504  and  _505
REMARK  200  A    between atoms: _508  and  _510
REMARK  201  A    between atoms: _510  and  _511
REMARK  202  A    between atoms: _513  and  _515
REMARK  203  A    between atoms: _515  and  _516
REMARK  204  A    between atoms: _515  and  _518
REMARK  205  A    between atoms: _518  and  _519
REMARK  206  A    between atoms: _521  and  _523
REMARK  207  A    between atoms: _523  and  _524
REMARK  208  A    between atoms: _523  and  _526
REMARK  209  A    between atoms: _526  and  _527
REMARK  210  A    between atoms: _533  and  _535
REMARK  211  A    between atoms: _535  and  _536
REMARK  212  A    between atoms: _535  and  _538
REMARK  213  A    between atoms: _538  and  _539
REMARK  214  A    between atoms: _545  and  _547
REMARK  215  A    between atoms: _547  and  _548
REMARK  216  A    between atoms: _547  and  _550
REMARK  217  A    between atoms: _550  and  _551
REMARK  218  A    between atoms: _554  and  _556
REMARK  219  A    between atoms: _556  and  _557
REMARK  220  A    between atoms: _556  and  _559
REMARK  221  A    between atoms: _559  and  _560
REMARK  222  A    between atoms: _563  and  _565
REMARK  223  A    between atoms: _565  and  _566
REMARK  224  A    between atoms: _565  and  _568
REMARK  225  A    between atoms: _568  and  _569
REMARK  226  A    between atoms: _574  and  _575
REMARK  227  A    between atoms: _577  and  _579
REMARK  228  A    between atoms: _579  and  _580
REMARK  229  A    between atoms: _582  and  _584
REMARK  230  A    between atoms: _584  and  _585
REMARK  231  A    between atoms: _588  and  _590
REMARK  232  A    between atoms: _590  and  _591
REMARK  233  A    between atoms: _590  and  _593
REMARK  234  A    between atoms: _593  and  _594
REMARK  235  A    between atoms: _597  and  _599
REMARK  236  A    between atoms: _599  and  _600
REMARK  237  A    between atoms: _599  and  _602
REMARK  238  A    between atoms: _602  and  _603
REMARK  239  A    between atoms: _605  and  _607
REMARK  240  A    between atoms: _607  and  _608
REMARK  241  A    between atoms: _607  and  _610
REMARK  242  A    between atoms: _613  and  _615
REMARK  243  A    between atoms: _615  and  _616
REMARK  244  A    between atoms: _615  and  _618
REMARK  245  A    between atoms: _618  and  _619
REMARK  246  A    between atoms: _624  and  _626
REMARK  247  A    between atoms: _626  and  _627
REMARK  248  A    between atoms: _626  and  _629
REMARK  249  A    between atoms: _629  and  _630
REMARK  250  A    between atoms: _640  and  _642
REMARK  251  A    between atoms: _642  and  _643
REMARK  252  A    between atoms: _642  and  _645
REMARK  253  A    between atoms: _645  and  _646
REMARK  254  A    between atoms: _646  and  _647
REMARK  255  A    between atoms: _649  and  _651
REMARK  256  A    between atoms: _651  and  _652
REMARK  257  A    between atoms: _651  and  _654
REMARK  258  A    between atoms: _654  and  _655
REMARK  259  A    between atoms: _658  and  _660
REMARK  260  A    between atoms: _660  and  _661
REMARK  261  A    between atoms: _660  and  _663
REMARK  262  A    between atoms: _663  and  _664
REMARK  263  A    between atoms: _669  and  _671
REMARK  264  A    between atoms: _671  and  _672
REMARK  265  A    between atoms: _674  and  _676
REMARK  266  A    between atoms: _676  and  _677
REMARK  267  A    between atoms: _676  and  _679
REMARK  268  A    between atoms: _679  and  _680
REMARK  269  A    between atoms: _685  and  _686
REMARK  270  A    between atoms: _688  and  _690
REMARK  271  A    between atoms: _690  and  _691
REMARK  272  A    between atoms: _690  and  _693
REMARK  273  A    between atoms: _693  and  _694
REMARK  274  A    between atoms: _694  and  _695
REMARK  275  A    between atoms: _698  and  _700
REMARK  276  A    between atoms: _700  and  _701
REMARK  277  A    between atoms: _700  and  _703
REMARK  278  A    between atoms: _703  and  _704
REMARK                            x       y       z     vdW  Elec       q    Type
REMARK                         _______ _______ _______ _____ _____    ______ ____
ROOT
ATOM      1  CA  TYR A   4      10.528  73.772  62.437  0.00  0.00    +0.153 C 
ENDROOT
BRANCH   1   2
ATOM      2  C   TYR A   4      11.318  74.356  61.284  0.00  0.00    +0.241 C 
ATOM      3  O   TYR A   4      11.761  75.520  61.336  0.00  0.00    -0.273 OA
ATOM      4  N   GLU A   5      11.497  73.555  60.226  0.00  0.00    -0.297 N 
ATOM      5  H   GLU A   5      11.221  72.554  60.278  0.00  0.00    +0.150 HD
BRANCH   4   6
ATOM      6  CA  GLU A   5      12.081  74.090  58.997  0.00  0.00    +0.149 C 
BRANCH   6   7
ATOM      7  C   GLU A   5      10.860  74.553  58.119  0.00  0.00    +0.241 C 
ATOM      8  N   ILE A   6       9.680  74.045  58.435  0.00  0.00    -0.298 N 
ATOM      9  H   ILE A   6       9.592  73.402  59.248  0.00  0.00    +0.150 HD
ATOM     10  O   GLU A   5      10.974  75.392  57.193  0.00  0.00    -0.273 OA
BRANCH   8  11
ATOM     11  CA  ILE A   6       8.497  74.387  57.641  0.00  0.00    +0.137 C 
BRANCH  11  12
ATOM     12  CB  ILE A   6       7.192  73.727  58.240  0.00  0.00    +0.026 C 
ATOM     13  CG2 ILE A   6       5.940  74.262  57.477  0.00  0.00    +0.002 C 
BRANCH  12  14
ATOM     14  CG1 ILE A   6       7.303  72.190  58.162  0.00  0.00    +0.002 C 
ATOM     15  CD1 ILE A   6       6.158  71.446  58.805  0.00  0.00    +0.000 C 
ENDBRANCH  12  14
ENDBRANCH  11  12
BRANCH  11  16
ATOM     16  C   ILE A   6       8.276  75.908  57.513  0.00  0.00    +0.227 C 
ATOM     17  O   ILE A   6       8.047  76.421  56.408  0.00  0.00    -0.286 OA
ENDBRANCH  11  16
ENDBRANCH   8  11
ENDBRANCH   6   7
BRANCH   6  18
ATOM     18  CB  GLU A   5      12.882  73.034  58.220  0.00  0.00    +0.041 C 
BRANCH  18  19
ATOM     19  CG  GLU A   5      12.049  72.165  57.276  0.00  0.00    +0.116 C 
BRANCH  19  20
ATOM     20  CD  GLU A   5      11.100  71.157  57.989  0.00  0.00    +0.365 C 
ATOM     21  OE2 GLU A   5      11.172  71.003  59.225  0.00  0.00    -0.246 OA
ATOM     22  OE1 GLU A   5      10.284  70.504  57.294  0.00  0.00    -0.246 OA
ENDBRANCH  19  20
ENDBRANCH  18  19
ENDBRANCH   6  18
ENDBRANCH   4   6
ENDBRANCH   1   2
BRANCH   1  24
ATOM     23  C   GLY A   3       9.104  71.968  61.825  0.00  0.00    +0.243 C 
ATOM     24  N   TYR A   4      10.206  72.364  62.449  0.00  0.00    -0.297 N 
ATOM     25  H   TYR A   4      10.821  71.679  62.933  0.00  0.00    +0.150 HD
ATOM     26  O   GLY A   3       8.388  72.761  61.176  0.00  0.00    -0.273 OA
BRANCH  23  27
ATOM     27  CA  GLY A   3       8.759  70.493  61.927  0.00  0.00    +0.176 C 
BRANCH  27  30
ATOM     28  C   HIS A   2       9.772  69.201  63.702  0.00  0.00    +0.241 C 
ATOM     29  O   HIS A   2       8.945  69.586  64.520  0.00  0.00    -0.273 OA
ATOM     30  N   GLY A   3       9.784  69.602  62.442  0.00  0.00    -0.295 N 
ATOM     31  H   GLY A   3      10.541  69.274  61.809  0.00  0.00    +0.150 HD
BRANCH  28  32
ATOM     32  CA  HIS A   2      10.877  68.231  64.120  0.00  0.00    +0.155 C 
BRANCH  32  34
ATOM     33  C   ILE A   1      12.148  70.069  65.063  0.00  0.00    +0.238 C 
ATOM     34  N   HIS A   2      11.602  68.872  65.179  0.00  0.00    -0.297 N 
ATOM     35  H   HIS A   2      11.703  68.369  66.084  0.00  0.00    +0.150 HD
ATOM     36  O   ILE A   1      12.164  70.711  64.016  0.00  0.00    -0.274 OA
BRANCH  33  37
ATOM     37  CA  ILE A   1      12.804  70.572  66.346  0.00  0.00    +0.145 C 
BRANCH  37  38
ATOM     38  N   ILE A   1      13.960  71.461  66.238  0.00  0.00    -0.238 NA
ATOM     39  H   ILE A   1      13.832  72.451  66.529  0.00  0.00    +0.142 HD
ENDBRANCH  37  38
BRANCH  37  40
ATOM     40  CB  ILE A   1      11.768  71.274  67.246  0.00  0.00    +0.025 C 
ATOM     41  CG2 ILE A   1      10.531  70.413  67.495  0.00  0.00    +0.002 C 
BRANCH  40  42
ATOM     42  CG1 ILE A   1      12.474  71.668  68.562  0.00  0.00    +0.002 C 
ATOM     43  CD1 ILE A   1      11.622  72.558  69.385  0.00  0.00    +0.000 C 
ENDBRANCH  40  42
ENDBRANCH  37  40
ENDBRANCH  33  37
ENDBRANCH  32  34
BRANCH  32  44
ATOM     44  CB  HIS A   2      10.256  66.945  64.673  0.00  0.00    +0.076 C 
BRANCH  44  45
ATOM     45  CG  HIS A   2       9.552  66.105  63.657  0.00  0.00    +0.082 A 
ATOM     46  CD2 HIS A   2       8.263  65.681  63.585  0.00  0.00    +0.115 A 
ATOM     47  NE2 HIS A   2       8.165  64.848  62.495  0.00  0.00    -0.221 NA
ATOM     48  CE1 HIS A   2       9.358  64.770  61.917  0.00  0.00    +0.199 A 
ATOM     49  ND1 HIS A   2      10.206  65.527  62.597  0.00  0.00    -0.227 NA
ENDBRANCH  44  45
ENDBRANCH  32  44
ENDBRANCH  28  32
ENDBRANCH  27  30
ENDBRANCH  23  27
ENDBRANCH   1  24
BRANCH   1  50
ATOM     50  CB  TYR A   4      11.078  74.174  63.815  0.00  0.00    +0.055 C 
BRANCH  50  51
ATOM     51  CG  TYR A   4       9.934  74.215  64.829  0.00  0.00    -0.020 A 
ATOM     52  CD2 TYR A   4       9.398  73.033  65.368  0.00  0.00    -0.001 A 
ATOM     53  CE2 TYR A   4       8.190  73.069  66.166  0.00  0.00    +0.036 A 
ATOM     54  CZ  TYR A   4       7.560  74.314  66.390  0.00  0.00    +0.134 A 
ATOM     55  CE1 TYR A   4       8.094  75.489  65.870  0.00  0.00    +0.036 A 
ATOM     56  CD1 TYR A   4       9.270  75.433  65.106  0.00  0.00    -0.001 A 
BRANCH  54  57
ATOM     57  OH  TYR A   4       6.385  74.380  67.076  0.00  0.00    -0.506 OA
ATOM     58  HH  TYR A   4       5.678  74.738  66.483  0.00  0.00    +0.292 HD
ENDBRANCH  54  57
ENDBRANCH  50  51
ENDBRANCH   1  50
TORSDOF 24
REMARK  Name = ../refined-set-2016/1h23/1h23_pocket.pdb
REMARK  278 active torsions:
REMARK  status: ('A' for Active; 'I' for Inactive)
REMARK    1  A    between atoms: _1  and  _3
REMARK    2  A    between atoms: _3  and  _4
REMARK    3  A    between atoms: _3  and  _6
REMARK    4  A    between atoms: _6  and  _7
REMARK    5  A    between atoms: _7  and  _8
REMARK    6  A    between atoms: _13  and  _15
REMARK    7  A    between atoms: _15  and  _16
REMARK    8  A    between atoms: _15  and  _18
REMARK    9  A    between atoms: _18  and  _19
REMARK   10  A    between atoms: _24  and  _25
REMARK   11  A    between atoms: _27  and  _29
REMARK   12  A    between atoms: _29  and  _30
REMARK   13  A    between atoms: _29  and  _32
REMARK   14  A    between atoms: _35  and  _37
REMARK   15  A    between atoms: _37  and  _38
REMARK   16  A    between atoms: _37  and  _40
REMARK   17  A    between atoms: _40  and  _41
REMARK   18  A    between atoms: _44  and  _46
REMARK   19  A    between atoms: _46  and  _47
REMARK   20  A    between atoms: _46  and  _49
REMARK   21  A    between atoms: _49  and  _50
REMARK   22  A    between atoms: _50  and  _51
REMARK   23  A    between atoms: _54  and  _56
REMARK   24  A    between atoms: _56  and  _57
REMARK   25  A    between atoms: _56  and  _59
REMARK   26  A    between atoms: _59  and  _60
REMARK   27  A    between atoms: _60  and  _61
REMARK   28  A    between atoms: _66  and  _68
REMARK   29  A    between atoms: _68  and  _69
REMARK   30  A    between atoms: _68  and  _71
REMARK   31  A    between atoms: _71  and  _72
REMARK   32  A    between atoms: _78  and  _80
REMARK   33  A    between atoms: _80  and  _81
REMARK   34  A    between atoms: _83  and  _85
REMARK   35  A    between atoms: _85  and  _86
REMARK   36  A    between atoms: _85  and  _88
REMARK   37  A    between atoms: _88  and  _89
REMARK   38  A    between atoms: _91  and  _93
REMARK   39  A    between atoms: _93  and  _94
REMARK   40  A    between atoms: _93  and  _96
REMARK   41  A    between atoms: _96  and  _97
REMARK   42  A    between atoms: _97  and  _98
REMARK   43  A    between atoms: _100  and  _102
REMARK   44  A    between atoms: _102  and  _103
REMARK   45  A    between atoms: _102  and  _105
REMARK   46  A    between atoms: _105  and  _106
REMARK   47  A    between atoms: _116  and  _118
REMARK   48  A    between atoms: _118  and  _119
REMARK   49  A    between atoms: _118  and  _121
REMARK   50  A    between atoms: _121  and  _122
REMARK   51  A    between atoms: _128  and  _129
REMARK   52  A    between atoms: _134  and  _136
REMARK   53  A    between atoms: _136  and  _137
REMARK   54  A    between atoms: _136  and  _139
REMARK   55  A    between atoms: _139  and  _140
REMARK   56  A    between atoms: _150  and  _152
REMARK   57  A    between atoms: _152  and  _153
REMARK   58  A    between atoms: _152  and  _155
REMARK   59  A    between atoms: _155  and  _156
REMARK   60  A    between atoms: _159  and  _161
REMARK   61  A    between atoms: _161  and  _162
REMARK   62  A    between atoms: _161  and  _164
REMARK   63  A    between atoms: _164  and  _165
REMARK   64  A    between atoms: _170  and  _171
REMARK   65  A    between atoms: _173  and  _175
REMARK   66  A    between atoms: _175  and  _176
REMARK   67  A    between atoms: _178  and  _180
REMARK   68  A    between atoms: _180  and  _181
REMARK   69  A    between atoms: _183  and  _185
REMARK   70  A    between atoms: _185  and  _186
REMARK   71  A    between atoms: _188  and  _190
REMARK   72  A    between atoms: _190  and  _191
REMARK   73  A    between atoms: _190  and  _193
REMARK   74  A    between atoms: _193  and  _194
REMARK   75  A    between atoms: _200  and  _202
REMARK   76  A    between atoms: _202  and  _203
REMARK   77  A    between atoms: _202  and  _205
REMARK   78  A    between atoms: _205  and  _206
REMARK   79  A    between atoms: _211  and  _212
REMARK   80  A    between atoms: _214  and  _216
REMARK   81  A    between atoms: _216  and  _217
REMARK   82  A    between atoms: _216  and  _219
REMARK   83  A    between atoms: _219  and  _220
REMARK   84  A    between atoms: _222  and  _224
REMARK   85  A    between atoms: _224  and  _225
REMARK   86  A    between atoms: _227  and  _229
REMARK   87  A    between atoms: _229  and  _230
REMARK   88  A    between atoms: _229  and  _232
REMARK   89  A    between atoms: _232  and  _233
REMARK   90  A    between atoms: _235  and  _237
REMARK   91  A    between atoms: _237  and  _238
REMARK   92  A    between atoms: _237  and  _240
REMARK   93  A    between atoms: _240  and  _241
REMARK   94  A    between atoms: _243  and  _245
REMARK   95  A    between atoms: _245  and  _246
REMARK   96  A    between atoms: _245  and  _248
REMARK   97  A    between atoms: _248  and  _249
REMARK   98  A    between atoms: _252  and  _254
REMARK   99  A    between atoms: _254  and  _255
REMARK  100  A    between atoms: _254  and  _257
REMARK  101  A    between atoms: _257  and  _258
REMARK  102  A    between atoms: _261  and  _263
REMARK  103  A    between atoms: _263  and  _264
REMARK  104  A    between atoms: _263  and  _266
REMARK  105  A    between atoms: _269  and  _271
REMARK  106  A    between atoms: _271  and  _272
REMARK  107  A    between atoms: _271  and  _274
REMARK  108  A    between atoms: _274  and  _275
REMARK  109  A    between atoms: _280  and  _281
REMARK  110  A    between atoms: _283  and  _285
REMARK  111  A    between atoms: _285  and  _286
REMARK  112  A    between atoms: _285  and  _288
REMARK  113  A    between atoms: _288  and  _289
REMARK  114  A    between atoms: _294  and  _295
REMARK  115  A    between atoms: _297  and  _299
REMARK  116  A    between atoms: _299  and  _300
REMARK  117  A    between atoms: _299  and  _302
REMARK  118  A    between atoms: _305  and  _307
REMARK  119  A    between atoms: _307  and  _308
REMARK  120  A    between atoms: _307  and  _310
REMARK  121  A    between atoms: _310  and  _311
REMARK  122  A    between atoms: _311  and  _312
REMARK  123  A    between atoms: _315  and  _317
REMARK  124  A    between atoms: _317  and  _318
REMARK  125  A    between atoms: _317  and  _320
REMARK  126  A    between atoms: _320  and  _321
REMARK  127  A    between atoms: _323  and  _325
REMARK  128  A    between atoms: _325  and  _326
REMARK  129  A    between atoms: _329  and  _331
REMARK  130  A    between atoms: _331  and  _332
REMARK  131  A    between atoms: _334  and  _336
REMARK  132  A    between atoms: _336  and  _337
REMARK  133  A    between atoms: _336  and  _339
REMARK  134  A    between atoms: _339  and  _340
REMARK  135  A    between atoms: _340  and  _341
REMARK  136  A    between atoms: _346  and  _348
REMARK  137  A    between atoms: _348  and  _349
REMARK  138  A    between atoms: _348  and  _351
REMARK  139  A    between atoms: _351  and  _352
REMARK  140  A    between atoms: _354  and  _356
REMARK  141  A    between atoms: _356  and  _357
REMARK  142  A    between atoms: _356  and  _359
REMARK  143  A    between atoms: _359  and  _360
REMARK  144  A    between atoms: _360  and  _361
REMARK  145  A    between atoms: _364  and  _366
REMARK  146  A    between atoms: _366  and  _367
REMARK  147  A    between atoms: _366  and  _369
REMARK  148  A    between atoms: _369  and  _370
REMARK  149  A    between atoms: _380  and  _382
REMARK  150  A    between atoms: _382  and  _383
REMARK  151  A    between atoms: _382  and  _385
REMARK  152  A    between atoms: _385  and  _386
REMARK  153  A    between atoms: _391  and  _393
REMARK  154  A    between atoms: _393  and  _394
REMARK  155  A    between atoms: _393  and  _396
REMARK  156  A    between atoms: _396  and  _397
REMARK  157  A    between atoms: _400  and  _402
REMARK  158  A    between atoms: _402  and  _403
REMARK  159  A    between atoms: _402  and  _405
REMARK  160  A    between atoms: _405  and  _406
REMARK  161  A    between atoms: _412  and  _414
REMARK  162  A    between atoms: _414  and  _415
REMARK  163  A    between atoms: _414  and  _417
REMARK  164  A    between atoms: _417  and  _418
REMARK  165  A    between atoms: _421  and  _423
REMARK  166  A    between atoms: _423  and  _424
REMARK  167  A    between atoms: _423  and  _426
REMARK  168  A    between atoms: _426  and  _427
REMARK  169  A    between atoms: _429  and  _431
REMARK  170  A    between atoms: _431  and  _432
REMARK  171  A    between atoms: _431  and  _434
REMARK  172  A    between atoms: _434  and  _435
REMARK  173  A    between atoms: _438  and  _440
REMARK  174  A    between atoms: _440  and  _441
REMARK  175  A    between atoms: _440  and  _443
REMARK  176  A    between atoms: _443  and  _444
REMARK  177  A    between atoms: _450  and  _452
REMARK  178  A    between atoms: _452  and  _453
REMARK  179  A    between atoms: _452  and  _455
REMARK  180  A    between atoms: _455  and  _456
REMARK  181  A    between atoms: _456  and  _457
REMARK  182  A    between atoms: _457  and  _458
REMARK  183  A    between atoms: _467  and  _469
REMARK  184  A    between atoms: _469  and  _470
REMARK  185  A    between atoms: _469  and  _472
REMARK  186  A    between atoms: _472  and  _473
REMARK  187  A    between atoms: _479  and  _481
REMARK  188  A    between atoms: _481  and  _482
REMARK  189  A    between atoms: _481  and  _484
REMARK  190  A    between atoms: _484  and  _485
REMARK  191  A    between atoms: _487  and  _489
REMARK  192  A    between atoms: _489  and  _490
REMARK  193  A    between atoms: _489  and  _492
REMARK  194  A    between atoms: _492  and  _493
REMARK  195  A    between atoms: _498  and  _500
REMARK  196  A    between atoms: _500  and  _501
REMARK  197  A    between atoms: _500  and  _503
REMARK  198  A    between atoms: _503  and  _504
REMARK  199  A    between atoms: _504  and  _505
REMARK  200  A    between atoms: _508  and  _510
REMARK  201  A    between atoms: _510  and  _511
REMARK  202  A    between atoms: _513  and  _515
REMARK  203  A    between atoms: _515  and  _516
REMARK  204  A    between atoms: _515  and  _518
REMARK  205  A    between atoms: _518  and  _519
REMARK  206  A    between atoms: _521  and  _523
REMARK  207  A    between atoms: _523  and  _524
REMARK  208  A    between atoms: _523  and  _526
REMARK  209  A    between atoms: _526  and  _527
REMARK  210  A    between atoms: _533  and  _535
REMARK  211  A    between atoms: _535  and  _536
REMARK  212  A    between atoms: _535  and  _538
REMARK  213  A    between atoms: _538  and  _539
REMARK  214  A    between atoms: _545  and  _547
REMARK  215  A    between atoms: _547  and  _548
REMARK  216  A    between atoms: _547  and  _550
REMARK  217  A    between atoms: _550  and  _551
REMARK  218  A    between atoms: _554  and  _556
REMARK  219  A    between atoms: _556  and  _557
REMARK  220  A    between atoms: _556  and  _559
REMARK  221  A    between atoms: _559  and  _560
REMARK  222  A    between atoms: _563  and  _565
REMARK  223  A    between atoms: _565  and  _566
REMARK  224  A    between atoms: _565  and  _568
REMARK  225  A    between atoms: _568  and  _569
REMARK  226  A    between atoms: _574  and  _575
REMARK  227  A    between atoms: _577  and  _579
REMARK  228  A    between atoms: _579  and  _580
REMARK  229  A    between atoms: _582  and  _584
REMARK  230  A    between atoms: _584  and  _585
REMARK  231  A    between atoms: _588  and  _590
REMARK  232  A    between atoms: _590  and  _591
REMARK  233  A    between atoms: _590  and  _593
REMARK  234  A    between atoms: _593  and  _594
REMARK  235  A    between atoms: _597  and  _599
REMARK  236  A    between atoms: _599  and  _600
REMARK  237  A    between atoms: _599  and  _602
REMARK  238  A    between atoms: _602  and  _603
REMARK  239  A    between atoms: _605  and  _607
REMARK  240  A    between atoms: _607  and  _608
REMARK  241  A    between atoms: _607  and  _610
REMARK  242  A    between atoms: _613  and  _615
REMARK  243  A    between atoms: _615  and  _616
REMARK  244  A    between atoms: _615  and  _618
REMARK  245  A    between atoms: _618  and  _619
REMARK  246  A    between atoms: _624  and  _626
REMARK  247  A    between atoms: _626  and  _627
REMARK  248  A    between atoms: _626  and  _629
REMARK  249  A    between atoms: _629  and  _630
REMARK  250  A    between atoms: _640  and  _642
REMARK  251  A    between atoms: _642  and  _643
REMARK  252  A    between atoms: _642  and  _645
REMARK  253  A    between atoms: _645  and  _646
REMARK  254  A    between atoms: _646  and  _647
REMARK  255  A    between atoms: _649  and  _651
REMARK  256  A    between atoms: _651  and  _652
REMARK  257  A    between atoms: _651  and  _654
REMARK  258  A    between atoms: _654  and  _655
REMARK  259  A    between atoms: _658  and  _660
REMARK  260  A    between atoms: _660  and  _661
REMARK  261  A    between atoms: _660  and  _663
REMARK  262  A    between atoms: _663  and  _664
REMARK  263  A    between atoms: _669  and  _671
REMARK  264  A    between atoms: _671  and  _672
REMARK  265  A    between atoms: _674  and  _676
REMARK  266  A    between atoms: _676  and  _677
REMARK  267  A    between atoms: _676  and  _679
REMARK  268  A    between atoms: _679  and  _680
REMARK  269  A    between atoms: _685  and  _686
REMARK  270  A    between atoms: _688  and  _690
REMARK  271  A    between atoms: _690  and  _691
REMARK  272  A    between atoms: _690  and  _693
REMARK  273  A    between atoms: _693  and  _694
REMARK  274  A    between atoms: _694  and  _695
REMARK  275  A    between atoms: _698  and  _700
REMARK  276  A    between atoms: _700  and  _701
REMARK  277  A    between atoms: _700  and  _703
REMARK  278  A    between atoms: _703  and  _704
REMARK                            x       y       z     vdW  Elec       q    Type
REMARK                         _______ _______ _______ _____ _____    ______ ____
ROOT
ATOM      1  O   HOH     1      -2.121  63.208  77.259  0.00  0.00    +0.000 OA
ENDROOT
TORSDOF 0
REMARK  Name = ../refined-set-2016/1h23/1h23_pocket.pdb
REMARK  278 active torsions:
REMARK  status: ('A' for Active; 'I' for Inactive)
REMARK    1  A    between atoms: _1  and  _3
REMARK    2  A    between atoms: _3  and  _4
REMARK    3  A    between atoms: _3  and  _6
REMARK    4  A    between atoms: _6  and  _7
REMARK    5  A    between atoms: _7  and  _8
REMARK    6  A    between atoms: _13  and  _15
REMARK    7  A    between atoms: _15  and  _16
REMARK    8  A    between atoms: _15  and  _18
REMARK    9  A    between atoms: _18  and  _19
REMARK   10  A    between atoms: _24  and  _25
REMARK   11  A    between atoms: _27  and  _29
REMARK   12  A    between atoms: _29  and  _30
REMARK   13  A    between atoms: _29  and  _32
REMARK   14  A    between atoms: _35  and  _37
REMARK   15  A    between atoms: _37  and  _38
REMARK   16  A    between atoms: _37  and  _40
REMARK   17  A    between atoms: _40  and  _41
REMARK   18  A    between atoms: _44  and  _46
REMARK   19  A    between atoms: _46  and  _47
REMARK   20  A    between atoms: _46  and  _49
REMARK   21  A    between atoms: _49  and  _50
REMARK   22  A    between atoms: _50  and  _51
REMARK   23  A    between atoms: _54  and  _56
REMARK   24  A    between atoms: _56  and  _57
REMARK   25  A    between atoms: _56  and  _59
REMARK   26  A    between atoms: _59  and  _60
REMARK   27  A    between atoms: _60  and  _61
REMARK   28  A    between atoms: _66  and  _68
REMARK   29  A    between atoms: _68  and  _69
REMARK   30  A    between atoms: _68  and  _71
REMARK   31  A    between atoms: _71  and  _72
REMARK   32  A    between atoms: _78  and  _80
REMARK   33  A    between atoms: _80  and  _81
REMARK   34  A    between atoms: _83  and  _85
REMARK   35  A    between atoms: _85  and  _86
REMARK   36  A    between atoms: _85  and  _88
REMARK   37  A    between atoms: _88  and  _89
REMARK   38  A    between atoms: _91  and  _93
REMARK   39  A    between atoms: _93  and  _94
REMARK   40  A    between atoms: _93  and  _96
REMARK   41  A    between atoms: _96  and  _97
REMARK   42  A    between atoms: _97  and  _98
REMARK   43  A    between atoms: _100  and  _102
REMARK   44  A    between atoms: _102  and  _103
REMARK   45  A    between atoms: _102  and  _105
REMARK   46  A    between atoms: _105  and  _106
REMARK   47  A    between atoms: _116  and  _118
REMARK   48  A    between atoms: _118  and  _119
REMARK   49  A    between atoms: _118  and  _121
REMARK   50  A    between atoms: _121  and  _122
REMARK   51  A    between atoms: _128  and  _129
REMARK   52  A    between atoms: _134  and  _136
REMARK   53  A    between atoms: _136  and  _137
REMARK   54  A    between atoms: _136  and  _139
REMARK   55  A    between atoms: _139  and  _140
REMARK   56  A    between atoms: _150  and  _152
REMARK   57  A    between atoms: _152  and  _153
REMARK   58  A    between atoms: _152  and  _155
REMARK   59  A    between atoms: _155  and  _156
REMARK   60  A    between atoms: _159  and  _161
REMARK   61  A    between atoms: _161  and  _162
REMARK   62  A    between atoms: _161  and  _164
REMARK   63  A    between atoms: _164  and  _165
REMARK   64  A    between atoms: _170  and  _171
REMARK   65  A    between atoms: _173  and  _175
REMARK   66  A    between atoms: _175  and  _176
REMARK   67  A    between atoms: _178  and  _180
REMARK   68  A    between atoms: _180  and  _181
REMARK   69  A    between atoms: _183  and  _185
REMARK   70  A    between atoms: _185  and  _186
REMARK   71  A    between atoms: _188  and  _190
REMARK   72  A    between atoms: _190  and  _191
REMARK   73  A    between atoms: _190  and  _193
REMARK   74  A    between atoms: _193  and  _194
REMARK   75  A    between atoms: _200  and  _202
REMARK   76  A    between atoms: _202  and  _203
REMARK   77  A    between atoms: _202  and  _205
REMARK   78  A    between atoms: _205  and  _206
REMARK   79  A    between atoms: _211  and  _212
REMARK   80  A    between atoms: _214  and  _216
REMARK   81  A    between atoms: _216  and  _217
REMARK   82  A    between atoms: _216  and  _219
REMARK   83  A    between atoms: _219  and  _220
REMARK   84  A    between atoms: _222  and  _224
REMARK   85  A    between atoms: _224  and  _225
REMARK   86  A    between atoms: _227  and  _229
REMARK   87  A    between atoms: _229  and  _230
REMARK   88  A    between atoms: _229  and  _232
REMARK   89  A    between atoms: _232  and  _233
REMARK   90  A    between atoms: _235  and  _237
REMARK   91  A    between atoms: _237  and  _238
REMARK   92  A    between atoms: _237  and  _240
REMARK   93  A    between atoms: _240  and  _241
REMARK   94  A    between atoms: _243  and  _245
REMARK   95  A    between atoms: _245  and  _246
REMARK   96  A    between atoms: _245  and  _248
REMARK   97  A    between atoms: _248  and  _249
REMARK   98  A    between atoms: _252  and  _254
REMARK   99  A    between atoms: _254  and  _255
REMARK  100  A    between atoms: _254  and  _257
REMARK  101  A    between atoms: _257  and  _258
REMARK  102  A    between atoms: _261  and  _263
REMARK  103  A    between atoms: _263  and  _264
REMARK  104  A    between atoms: _263  and  _266
REMARK  105  A    between atoms: _269  and  _271
REMARK  106  A    between atoms: _271  and  _272
REMARK  107  A    between atoms: _271  and  _274
REMARK  108  A    between atoms: _274  and  _275
REMARK  109  A    between atoms: _280  and  _281
REMARK  110  A    between atoms: _283  and  _285
REMARK  111  A    between atoms: _285  and  _286
REMARK  112  A    between atoms: _285  and  _288
REMARK  113  A    between atoms: _288  and  _289
REMARK  114  A    between atoms: _294  and  _295
REMARK  115  A    between atoms: _297  and  _299
REMARK  116  A    between atoms: _299  and  _300
REMARK  117  A    between atoms: _299  and  _302
REMARK  118  A    between atoms: _305  and  _307
REMARK  119  A    between atoms: _307  and  _308
REMARK  120  A    between atoms: _307  and  _310
REMARK  121  A    between atoms: _310  and  _311
REMARK  122  A    between atoms: _311  and  _312
REMARK  123  A    between atoms: _315  and  _317
REMARK  124  A    between atoms: _317  and  _318
REMARK  125  A    between atoms: _317  and  _320
REMARK  126  A    between atoms: _320  and  _321
REMARK  127  A    between atoms: _323  and  _325
REMARK  128  A    between atoms: _325  and  _326
REMARK  129  A    between atoms: _329  and  _331
REMARK  130  A    between atoms: _331  and  _332
REMARK  131  A    between atoms: _334  and  _336
REMARK  132  A    between atoms: _336  and  _337
REMARK  133  A    between atoms: _336  and  _339
REMARK  134  A    between atoms: _339  and  _340
REMARK  135  A    between atoms: _340  and  _341
REMARK  136  A    between atoms: _346  and  _348
REMARK  137  A    between atoms: _348  and  _349
REMARK  138  A    between atoms: _348  and  _351
REMARK  139  A    between atoms: _351  and  _352
REMARK  140  A    between atoms: _354  and  _356
REMARK  141  A    between atoms: _356  and  _357
REMARK  142  A    between atoms: _356  and  _359
REMARK  143  A    between atoms: _359  and  _360
REMARK  144  A    between atoms: _360  and  _361
REMARK  145  A    between atoms: _364  and  _366
REMARK  146  A    between atoms: _366  and  _367
REMARK  147  A    between atoms: _366  and  _369
REMARK  148  A    between atoms: _369  and  _370
REMARK  149  A    between atoms: _380  and  _382
REMARK  150  A    between atoms: _382  and  _383
REMARK  151  A    between atoms: _382  and  _385
REMARK  152  A    between atoms: _385  and  _386
REMARK  153  A    between atoms: _391  and  _393
REMARK  154  A    between atoms: _393  and  _394
REMARK  155  A    between atoms: _393  and  _396
REMARK  156  A    between atoms: _396  and  _397
REMARK  157  A    between atoms: _400  and  _402
REMARK  158  A    between atoms: _402  and  _403
REMARK  159  A    between atoms: _402  and  _405
REMARK  160  A    between atoms: _405  and  _406
REMARK  161  A    between atoms: _412  and  _414
REMARK  162  A    between atoms: _414  and  _415
REMARK  163  A    between atoms: _414  and  _417
REMARK  164  A    between atoms: _417  and  _418
REMARK  165  A    between atoms: _421  and  _423
REMARK  166  A    between atoms: _423  and  _424
REMARK  167  A    between atoms: _423  and  _426
REMARK  168  A    between atoms: _426  and  _427
REMARK  169  A    between atoms: _429  and  _431
REMARK  170  A    between atoms: _431  and  _432
REMARK  171  A    between atoms: _431  and  _434
REMARK  172  A    between atoms: _434  and  _435
REMARK  173  A    between atoms: _438  and  _440
REMARK  174  A    between atoms: _440  and  _441
REMARK  175  A    between atoms: _440  and  _443
REMARK  176  A    between atoms: _443  and  _444
REMARK  177  A    between atoms: _450  and  _452
REMARK  178  A    between atoms: _452  and  _453
REMARK  179  A    between atoms: _452  and  _455
REMARK  180  A    between atoms: _455  and  _456
REMARK  181  A    between atoms: _456  and  _457
REMARK  182  A    between atoms: _457  and  _458
REMARK  183  A    between atoms: _467  and  _469
REMARK  184  A    between atoms: _469  and  _470
REMARK  185  A    between atoms: _469  and  _472
REMARK  186  A    between atoms: _472  and  _473
REMARK  187  A    between atoms: _479  and  _481
REMARK  188  A    between atoms: _481  and  _482
REMARK  189  A    between atoms: _481  and  _484
REMARK  190  A    between atoms: _484  and  _485
REMARK  191  A    between atoms: _487  and  _489
REMARK  192  A    between atoms: _489  and  _490
REMARK  193  A    between atoms: _489  and  _492
REMARK  194  A    between atoms: _492  and  _493
REMARK  195  A    between atoms: _498  and  _500
REMARK  196  A    between atoms: _500  and  _501
REMARK  197  A    between atoms: _500  and  _503
REMARK  198  A    between atoms: _503  and  _504
REMARK  199  A    between atoms: _504  and  _505
REMARK  200  A    between atoms: _508  and  _510
REMARK  201  A    between atoms: _510  and  _511
REMARK  202  A    between atoms: _513  and  _515
REMARK  203  A    between atoms: _515  and  _516
REMARK  204  A    between atoms: _515  and  _518
REMARK  205  A    between atoms: _518  and  _519
REMARK  206  A    between atoms: _521  and  _523
REMARK  207  A    between atoms: _523  and  _524
REMARK  208  A    between atoms: _523  and  _526
REMARK  209  A    between atoms: _526  and  _527
REMARK  210  A    between atoms: _533  and  _535
REMARK  211  A    between atoms: _535  and  _536
REMARK  212  A    between atoms: _535  and  _538
REMARK  213  A    between atoms: _538  and  _539
REMARK  214  A    between atoms: _545  and  _547
REMARK  215  A    between atoms: _547  and  _548
REMARK  216  A    between atoms: _547  and  _550
REMARK  217  A    between atoms: _550  and  _551
REMARK  218  A    between atoms: _554  and  _556
REMARK  219  A    between atoms: _556  and  _557
REMARK  220  A    between atoms: _556  and  _559
REMARK  221  A    between atoms: _559  and  _560
REMARK  222  A    between atoms: _563  and  _565
REMARK  223  A    between atoms: _565  and  _566
REMARK  224  A    between atoms: _565  and  _568
REMARK  225  A    between atoms: _568  and  _569
REMARK  226  A    between atoms: _574  and  _575
REMARK  227  A    between atoms: _577  and  _579
REMARK  228  A    between atoms: _579  and  _580
REMARK  229  A    between atoms: _582  and  _584
REMARK  230  A    between atoms: _584  and  _585
REMARK  231  A    between atoms: _588  and  _590
REMARK  232  A    between atoms: _590  and  _591
REMARK  233  A    between atoms: _590  and  _593
REMARK  234  A    between atoms: _593  and  _594
REMARK  235  A    between atoms: _597  and  _599
REMARK  236  A    between atoms: _599  and  _600
REMARK  237  A    between atoms: _599  and  _602
REMARK  238  A    between atoms: _602  and  _603
REMARK  239  A    between atoms: _605  and  _607
REMARK  240  A    between atoms: _607  and  _608
REMARK  241  A    between atoms: _607  and  _610
REMARK  242  A    between atoms: _613  and  _615
REMARK  243  A    between atoms: _615  and  _616
REMARK  244  A    between atoms: _615  and  _618
REMARK  245  A    between atoms: _618  and  _619
REMARK  246  A    between atoms: _624  and  _626
REMARK  247  A    between atoms: _626  and  _627
REMARK  248  A    between atoms: _626  and  _629
REMARK  249  A    between atoms: _629  and  _630
REMARK  250  A    between atoms: _640  and  _642
REMARK  251  A    between atoms: _642  and  _643
REMARK  252  A    between atoms: _642  and  _645
REMARK  253  A    between atoms: _645  and  _646
REMARK  254  A    between atoms: _646  and  _647
REMARK  255  A    between atoms: _649  and  _651
REMARK  256  A    between atoms: _651  and  _652
REMARK  257  A    between atoms: _651  and  _654
REMARK  258  A    between atoms: _654  and  _655
REMARK  259  A    between atoms: _658  and  _660
REMARK  260  A    between atoms: _660  and  _661
REMARK  261  A    between atoms: _660  and  _663
REMARK  262  A    between atoms: _663  and  _664
REMARK  263  A    between atoms: _669  and  _671
REMARK  264  A    between atoms: _671  and  _672
REMARK  265  A    between atoms: _674  and  _676
REMARK  266  A    between atoms: _676  and  _677
REMARK  267  A    between atoms: _676  and  _679
REMARK  268  A    between atoms: _679  and  _680
REMARK  269  A    between atoms: _685  and  _686
REMARK  270  A    between atoms: _688  and  _690
REMARK  271  A    between atoms: _690  and  _691
REMARK  272  A    between atoms: _690  and  _693
REMARK  273  A    between atoms: _693  and  _694
REMARK  274  A    between atoms: _694  and  _695
REMARK  275  A    between atoms: _698  and  _700
REMARK  276  A    between atoms: _700  and  _701
REMARK  277  A    between atoms: _700  and  _703
REMARK  278  A    between atoms: _703  and  _704
REMARK                            x       y       z     vdW  Elec       q    Type
REMARK                         _______ _______ _______ _____ _____    ______ ____
ROOT
ATOM      1  O   HOH     1      -3.834  62.509  75.150  0.00  0.00    +0.000 OA
ENDROOT
TORSDOF 0
REMARK  Name = ../refined-set-2016/1h23/1h23_pocket.pdb
REMARK  278 active torsions:
REMARK  status: ('A' for Active; 'I' for Inactive)
REMARK    1  A    between atoms: _1  and  _3
REMARK    2  A    between atoms: _3  and  _4
REMARK    3  A    between atoms: _3  and  _6
REMARK    4  A    between atoms: _6  and  _7
REMARK    5  A    between atoms: _7  and  _8
REMARK    6  A    between atoms: _13  and  _15
REMARK    7  A    between atoms: _15  and  _16
REMARK    8  A    between atoms: _15  and  _18
REMARK    9  A    between atoms: _18  and  _19
REMARK   10  A    between atoms: _24  and  _25
REMARK   11  A    between atoms: _27  and  _29
REMARK   12  A    between atoms: _29  and  _30
REMARK   13  A    between atoms: _29  and  _32
REMARK   14  A    between atoms: _35  and  _37
REMARK   15  A    between atoms: _37  and  _38
REMARK   16  A    between atoms: _37  and  _40
REMARK   17  A    between atoms: _40  and  _41
REMARK   18  A    between atoms: _44  and  _46
REMARK   19  A    between atoms: _46  and  _47
REMARK   20  A    between atoms: _46  and  _49
REMARK   21  A    between atoms: _49  and  _50
REMARK   22  A    between atoms: _50  and  _51
REMARK   23  A    between atoms: _54  and  _56
REMARK   24  A    between atoms: _56  and  _57
REMARK   25  A    between atoms: _56  and  _59
REMARK   26  A    between atoms: _59  and  _60
REMARK   27  A    between atoms: _60  and  _61
REMARK   28  A    between atoms: _66  and  _68
REMARK   29  A    between atoms: _68  and  _69
REMARK   30  A    between atoms: _68  and  _71
REMARK   31  A    between atoms: _71  and  _72
REMARK   32  A    between atoms: _78  and  _80
REMARK   33  A    between atoms: _80  and  _81
REMARK   34  A    between atoms: _83  and  _85
REMARK   35  A    between atoms: _85  and  _86
REMARK   36  A    between atoms: _85  and  _88
REMARK   37  A    between atoms: _88  and  _89
REMARK   38  A    between atoms: _91  and  _93
REMARK   39  A    between atoms: _93  and  _94
REMARK   40  A    between atoms: _93  and  _96
REMARK   41  A    between atoms: _96  and  _97
REMARK   42  A    between atoms: _97  and  _98
REMARK   43  A    between atoms: _100  and  _102
REMARK   44  A    between atoms: _102  and  _103
REMARK   45  A    between atoms: _102  and  _105
REMARK   46  A    between atoms: _105  and  _106
REMARK   47  A    between atoms: _116  and  _118
REMARK   48  A    between atoms: _118  and  _119
REMARK   49  A    between atoms: _118  and  _121
REMARK   50  A    between atoms: _121  and  _122
REMARK   51  A    between atoms: _128  and  _129
REMARK   52  A    between atoms: _134  and  _136
REMARK   53  A    between atoms: _136  and  _137
REMARK   54  A    between atoms: _136  and  _139
REMARK   55  A    between atoms: _139  and  _140
REMARK   56  A    between atoms: _150  and  _152
REMARK   57  A    between atoms: _152  and  _153
REMARK   58  A    between atoms: _152  and  _155
REMARK   59  A    between atoms: _155  and  _156
REMARK   60  A    between atoms: _159  and  _161
REMARK   61  A    between atoms: _161  and  _162
REMARK   62  A    between atoms: _161  and  _164
REMARK   63  A    between atoms: _164  and  _165
REMARK   64  A    between atoms: _170  and  _171
REMARK   65  A    between atoms: _173  and  _175
REMARK   66  A    between atoms: _175  and  _176
REMARK   67  A    between atoms: _178  and  _180
REMARK   68  A    between atoms: _180  and  _181
REMARK   69  A    between atoms: _183  and  _185
REMARK   70  A    between atoms: _185  and  _186
REMARK   71  A    between atoms: _188  and  _190
REMARK   72  A    between atoms: _190  and  _191
REMARK   73  A    between atoms: _190  and  _193
REMARK   74  A    between atoms: _193  and  _194
REMARK   75  A    between atoms: _200  and  _202
REMARK   76  A    between atoms: _202  and  _203
REMARK   77  A    between atoms: _202  and  _205
REMARK   78  A    between atoms: _205  and  _206
REMARK   79  A    between atoms: _211  and  _212
REMARK   80  A    between atoms: _214  and  _216
REMARK   81  A    between atoms: _216  and  _217
REMARK   82  A    between atoms: _216  and  _219
REMARK   83  A    between atoms: _219  and  _220
REMARK   84  A    between atoms: _222  and  _224
REMARK   85  A    between atoms: _224  and  _225
REMARK   86  A    between atoms: _227  and  _229
REMARK   87  A    between atoms: _229  and  _230
REMARK   88  A    between atoms: _229  and  _232
REMARK   89  A    between atoms: _232  and  _233
REMARK   90  A    between atoms: _235  and  _237
REMARK   91  A    between atoms: _237  and  _238
REMARK   92  A    between atoms: _237  and  _240
REMARK   93  A    between atoms: _240  and  _241
REMARK   94  A    between atoms: _243  and  _245
REMARK   95  A    between atoms: _245  and  _246
REMARK   96  A    between atoms: _245  and  _248
REMARK   97  A    between atoms: _248  and  _249
REMARK   98  A    between atoms: _252  and  _254
REMARK   99  A    between atoms: _254  and  _255
REMARK  100  A    between atoms: _254  and  _257
REMARK  101  A    between atoms: _257  and  _258
REMARK  102  A    between atoms: _261  and  _263
REMARK  103  A    between atoms: _263  and  _264
REMARK  104  A    between atoms: _263  and  _266
REMARK  105  A    between atoms: _269  and  _271
REMARK  106  A    between atoms: _271  and  _272
REMARK  107  A    between atoms: _271  and  _274
REMARK  108  A    between atoms: _274  and  _275
REMARK  109  A    between atoms: _280  and  _281
REMARK  110  A    between atoms: _283  and  _285
REMARK  111  A    between atoms: _285  and  _286
REMARK  112  A    between atoms: _285  and  _288
REMARK  113  A    between atoms: _288  and  _289
REMARK  114  A    between atoms: _294  and  _295
REMARK  115  A    between atoms: _297  and  _299
REMARK  116  A    between atoms: _299  and  _300
REMARK  117  A    between atoms: _299  and  _302
REMARK  118  A    between atoms: _305  and  _307
REMARK  119  A    between atoms: _307  and  _308
REMARK  120  A    between atoms: _307  and  _310
REMARK  121  A    between atoms: _310  and  _311
REMARK  122  A    between atoms: _311  and  _312
REMARK  123  A    between atoms: _315  and  _317
REMARK  124  A    between atoms: _317  and  _318
REMARK  125  A    between atoms: _317  and  _320
REMARK  126  A    between atoms: _320  and  _321
REMARK  127  A    between atoms: _323  and  _325
REMARK  128  A    between atoms: _325  and  _326
REMARK  129  A    between atoms: _329  and  _331
REMARK  130  A    between atoms: _331  and  _332
REMARK  131  A    between atoms: _334  and  _336
REMARK  132  A    between atoms: _336  and  _337
REMARK  133  A    between atoms: _336  and  _339
REMARK  134  A    between atoms: _339  and  _340
REMARK  135  A    between atoms: _340  and  _341
REMARK  136  A    between atoms: _346  and  _348
REMARK  137  A    between atoms: _348  and  _349
REMARK  138  A    between atoms: _348  and  _351
REMARK  139  A    between atoms: _351  and  _352
REMARK  140  A    between atoms: _354  and  _356
REMARK  141  A    between atoms: _356  and  _357
REMARK  142  A    between atoms: _356  and  _359
REMARK  143  A    between atoms: _359  and  _360
REMARK  144  A    between atoms: _360  and  _361
REMARK  145  A    between atoms: _364  and  _366
REMARK  146  A    between atoms: _366  and  _367
REMARK  147  A    between atoms: _366  and  _369
REMARK  148  A    between atoms: _369  and  _370
REMARK  149  A    between atoms: _380  and  _382
REMARK  150  A    between atoms: _382  and  _383
REMARK  151  A    between atoms: _382  and  _385
REMARK  152  A    between atoms: _385  and  _386
REMARK  153  A    between atoms: _391  and  _393
REMARK  154  A    between atoms: _393  and  _394
REMARK  155  A    between atoms: _393  and  _396
REMARK  156  A    between atoms: _396  and  _397
REMARK  157  A    between atoms: _400  and  _402
REMARK  158  A    between atoms: _402  and  _403
REMARK  159  A    between atoms: _402  and  _405
REMARK  160  A    between atoms: _405  and  _406
REMARK  161  A    between atoms: _412  and  _414
REMARK  162  A    between atoms: _414  and  _415
REMARK  163  A    between atoms: _414  and  _417
REMARK  164  A    between atoms: _417  and  _418
REMARK  165  A    between atoms: _421  and  _423
REMARK  166  A    between atoms: _423  and  _424
REMARK  167  A    between atoms: _423  and  _426
REMARK  168  A    between atoms: _426  and  _427
REMARK  169  A    between atoms: _429  and  _431
REMARK  170  A    between atoms: _431  and  _432
REMARK  171  A    between atoms: _431  and  _434
REMARK  172  A    between atoms: _434  and  _435
REMARK  173  A    between atoms: _438  and  _440
REMARK  174  A    between atoms: _440  and  _441
REMARK  175  A    between atoms: _440  and  _443
REMARK  176  A    between atoms: _443  and  _444
REMARK  177  A    between atoms: _450  and  _452
REMARK  178  A    between atoms: _452  and  _453
REMARK  179  A    between atoms: _452  and  _455
REMARK  180  A    between atoms: _455  and  _456
REMARK  181  A    between atoms: _456  and  _457
REMARK  182  A    between atoms: _457  and  _458
REMARK  183  A    between atoms: _467  and  _469
REMARK  184  A    between atoms: _469  and  _470
REMARK  185  A    between atoms: _469  and  _472
REMARK  186  A    between atoms: _472  and  _473
REMARK  187  A    between atoms: _479  and  _481
REMARK  188  A    between atoms: _481  and  _482
REMARK  189  A    between atoms: _481  and  _484
REMARK  190  A    between atoms: _484  and  _485
REMARK  191  A    between atoms: _487  and  _489
REMARK  192  A    between atoms: _489  and  _490
REMARK  193  A    between atoms: _489  and  _492
REMARK  194  A    between atoms: _492  and  _493
REMARK  195  A    between atoms: _498  and  _500
REMARK  196  A    between atoms: _500  and  _501
REMARK  197  A    between atoms: _500  and  _503
REMARK  198  A    between atoms: _503  and  _504
REMARK  199  A    between atoms: _504  and  _505
REMARK  200  A    between atoms: _508  and  _510
REMARK  201  A    between atoms: _510  and  _511
REMARK  202  A    between atoms: _513  and  _515
REMARK  203  A    between atoms: _515  and  _516
REMARK  204  A    between atoms: _515  and  _518
REMARK  205  A    between atoms: _518  and  _519
REMARK  206  A    between atoms: _521  and  _523
REMARK  207  A    between atoms: _523  and  _524
REMARK  208  A    between atoms: _523  and  _526
REMARK  209  A    between atoms: _526  and  _527
REMARK  210  A    between atoms: _533  and  _535
REMARK  211  A    between atoms: _535  and  _536
REMARK  212  A    between atoms: _535  and  _538
REMARK  213  A    between atoms: _538  and  _539
REMARK  214  A    between atoms: _545  and  _547
REMARK  215  A    between atoms: _547  and  _548
REMARK  216  A    between atoms: _547  and  _550
REMARK  217  A    between atoms: _550  and  _551
REMARK  218  A    between atoms: _554  and  _556
REMARK  219  A    between atoms: _556  and  _557
REMARK  220  A    between atoms: _556  and  _559
REMARK  221  A    between atoms: _559  and  _560
REMARK  222  A    between atoms: _563  and  _565
REMARK  223  A    between atoms: _565  and  _566
REMARK  224  A    between atoms: _565  and  _568
REMARK  225  A    between atoms: _568  and  _569
REMARK  226  A    between atoms: _574  and  _575
REMARK  227  A    between atoms: _577  and  _579
REMARK  228  A    between atoms: _579  and  _580
REMARK  229  A    between atoms: _582  and  _584
REMARK  230  A    between atoms: _584  and  _585
REMARK  231  A    between atoms: _588  and  _590
REMARK  232  A    between atoms: _590  and  _591
REMARK  233  A    between atoms: _590  and  _593
REMARK  234  A    between atoms: _593  and  _594
REMARK  235  A    between atoms: _597  and  _599
REMARK  236  A    between atoms: _599  and  _600
REMARK  237  A    between atoms: _599  and  _602
REMARK  238  A    between atoms: _602  and  _603
REMARK  239  A    between atoms: _605  and  _607
REMARK  240  A    between atoms: _607  and  _608
REMARK  241  A    between atoms: _607  and  _610
REMARK  242  A    between atoms: _613  and  _615
REMARK  243  A    between atoms: _615  and  _616
REMARK  244  A    between atoms: _615  and  _618
REMARK  245  A    between atoms: _618  and  _619
REMARK  246  A    between atoms: _624  and  _626
REMARK  247  A    between atoms: _626  and  _627
REMARK  248  A    between atoms: _626  and  _629
REMARK  249  A    between atoms: _629  and  _630
REMARK  250  A    between atoms: _640  and  _642
REMARK  251  A    between atoms: _642  and  _643
REMARK  252  A    between atoms: _642  and  _645
REMARK  253  A    between atoms: _645  and  _646
REMARK  254  A    between atoms: _646  and  _647
REMARK  255  A    between atoms: _649  and  _651
REMARK  256  A    between atoms: _651  and  _652
REMARK  257  A    between atoms: _651  and  _654
REMARK  258  A    between atoms: _654  and  _655
REMARK  259  A    between atoms: _658  and  _660
REMARK  260  A    between atoms: _660  and  _661
REMARK  261  A    between atoms: _660  and  _663
REMARK  262  A    between atoms: _663  and  _664
REMARK  263  A    between atoms: _669  and  _671
REMARK  264  A    between atoms: _671  and  _672
REMARK  265  A    between atoms: _674  and  _676
REMARK  266  A    between atoms: _676  and  _677
REMARK  267  A    between atoms: _676  and  _679
REMARK  268  A    between atoms: _679  and  _680
REMARK  269  A    between atoms: _685  and  _686
REMARK  270  A    between atoms: _688  and  _690
REMARK  271  A    between atoms: _690  and  _691
REMARK  272  A    between atoms: _690  and  _693
REMARK  273  A    between atoms: _693  and  _694
REMARK  274  A    between atoms: _694  and  _695
REMARK  275  A    between atoms: _698  and  _700
REMARK  276  A    between atoms: _700  and  _701
REMARK  277  A    between atoms: _700  and  _703
REMARK  278  A    between atoms: _703  and  _704
REMARK                            x       y       z     vdW  Elec       q    Type
REMARK                         _______ _______ _______ _____ _____    ______ ____
ROOT
ATOM      1  O   HOH     1      -3.381  66.769  74.743  0.00  0.00    +0.000 OA
ENDROOT
TORSDOF 0
REMARK  Name = ../refined-set-2016/1h23/1h23_pocket.pdb
REMARK  278 active torsions:
REMARK  status: ('A' for Active; 'I' for Inactive)
REMARK    1  A    between atoms: _1  and  _3
REMARK    2  A    between atoms: _3  and  _4
REMARK    3  A    between atoms: _3  and  _6
REMARK    4  A    between atoms: _6  and  _7
REMARK    5  A    between atoms: _7  and  _8
REMARK    6  A    between atoms: _13  and  _15
REMARK    7  A    between atoms: _15  and  _16
REMARK    8  A    between atoms: _15  and  _18
REMARK    9  A    between atoms: _18  and  _19
REMARK   10  A    between atoms: _24  and  _25
REMARK   11  A    between atoms: _27  and  _29
REMARK   12  A    between atoms: _29  and  _30
REMARK   13  A    between atoms: _29  and  _32
REMARK   14  A    between atoms: _35  and  _37
REMARK   15  A    between atoms: _37  and  _38
REMARK   16  A    between atoms: _37  and  _40
REMARK   17  A    between atoms: _40  and  _41
REMARK   18  A    between atoms: _44  and  _46
REMARK   19  A    between atoms: _46  and  _47
REMARK   20  A    between atoms: _46  and  _49
REMARK   21  A    between atoms: _49  and  _50
REMARK   22  A    between atoms: _50  and  _51
REMARK   23  A    between atoms: _54  and  _56
REMARK   24  A    between atoms: _56  and  _57
REMARK   25  A    between atoms: _56  and  _59
REMARK   26  A    between atoms: _59  and  _60
REMARK   27  A    between atoms: _60  and  _61
REMARK   28  A    between atoms: _66  and  _68
REMARK   29  A    between atoms: _68  and  _69
REMARK   30  A    between atoms: _68  and  _71
REMARK   31  A    between atoms: _71  and  _72
REMARK   32  A    between atoms: _78  and  _80
REMARK   33  A    between atoms: _80  and  _81
REMARK   34  A    between atoms: _83  and  _85
REMARK   35  A    between atoms: _85  and  _86
REMARK   36  A    between atoms: _85  and  _88
REMARK   37  A    between atoms: _88  and  _89
REMARK   38  A    between atoms: _91  and  _93
REMARK   39  A    between atoms: _93  and  _94
REMARK   40  A    between atoms: _93  and  _96
REMARK   41  A    between atoms: _96  and  _97
REMARK   42  A    between atoms: _97  and  _98
REMARK   43  A    between atoms: _100  and  _102
REMARK   44  A    between atoms: _102  and  _103
REMARK   45  A    between atoms: _102  and  _105
REMARK   46  A    between atoms: _105  and  _106
REMARK   47  A    between atoms: _116  and  _118
REMARK   48  A    between atoms: _118  and  _119
REMARK   49  A    between atoms: _118  and  _121
REMARK   50  A    between atoms: _121  and  _122
REMARK   51  A    between atoms: _128  and  _129
REMARK   52  A    between atoms: _134  and  _136
REMARK   53  A    between atoms: _136  and  _137
REMARK   54  A    between atoms: _136  and  _139
REMARK   55  A    between atoms: _139  and  _140
REMARK   56  A    between atoms: _150  and  _152
REMARK   57  A    between atoms: _152  and  _153
REMARK   58  A    between atoms: _152  and  _155
REMARK   59  A    between atoms: _155  and  _156
REMARK   60  A    between atoms: _159  and  _161
REMARK   61  A    between atoms: _161  and  _162
REMARK   62  A    between atoms: _161  and  _164
REMARK   63  A    between atoms: _164  and  _165
REMARK   64  A    between atoms: _170  and  _171
REMARK   65  A    between atoms: _173  and  _175
REMARK   66  A    between atoms: _175  and  _176
REMARK   67  A    between atoms: _178  and  _180
REMARK   68  A    between atoms: _180  and  _181
REMARK   69  A    between atoms: _183  and  _185
REMARK   70  A    between atoms: _185  and  _186
REMARK   71  A    between atoms: _188  and  _190
REMARK   72  A    between atoms: _190  and  _191
REMARK   73  A    between atoms: _190  and  _193
REMARK   74  A    between atoms: _193  and  _194
REMARK   75  A    between atoms: _200  and  _202
REMARK   76  A    between atoms: _202  and  _203
REMARK   77  A    between atoms: _202  and  _205
REMARK   78  A    between atoms: _205  and  _206
REMARK   79  A    between atoms: _211  and  _212
REMARK   80  A    between atoms: _214  and  _216
REMARK   81  A    between atoms: _216  and  _217
REMARK   82  A    between atoms: _216  and  _219
REMARK   83  A    between atoms: _219  and  _220
REMARK   84  A    between atoms: _222  and  _224
REMARK   85  A    between atoms: _224  and  _225
REMARK   86  A    between atoms: _227  and  _229
REMARK   87  A    between atoms: _229  and  _230
REMARK   88  A    between atoms: _229  and  _232
REMARK   89  A    between atoms: _232  and  _233
REMARK   90  A    between atoms: _235  and  _237
REMARK   91  A    between atoms: _237  and  _238
REMARK   92  A    between atoms: _237  and  _240
REMARK   93  A    between atoms: _240  and  _241
REMARK   94  A    between atoms: _243  and  _245
REMARK   95  A    between atoms: _245  and  _246
REMARK   96  A    between atoms: _245  and  _248
REMARK   97  A    between atoms: _248  and  _249
REMARK   98  A    between atoms: _252  and  _254
REMARK   99  A    between atoms: _254  and  _255
REMARK  100  A    between atoms: _254  and  _257
REMARK  101  A    between atoms: _257  and  _258
REMARK  102  A    between atoms: _261  and  _263
REMARK  103  A    between atoms: _263  and  _264
REMARK  104  A    between atoms: _263  and  _266
REMARK  105  A    between atoms: _269  and  _271
REMARK  106  A    between atoms: _271  and  _272
REMARK  107  A    between atoms: _271  and  _274
REMARK  108  A    between atoms: _274  and  _275
REMARK  109  A    between atoms: _280  and  _281
REMARK  110  A    between atoms: _283  and  _285
REMARK  111  A    between atoms: _285  and  _286
REMARK  112  A    between atoms: _285  and  _288
REMARK  113  A    between atoms: _288  and  _289
REMARK  114  A    between atoms: _294  and  _295
REMARK  115  A    between atoms: _297  and  _299
REMARK  116  A    between atoms: _299  and  _300
REMARK  117  A    between atoms: _299  and  _302
REMARK  118  A    between atoms: _305  and  _307
REMARK  119  A    between atoms: _307  and  _308
REMARK  120  A    between atoms: _307  and  _310
REMARK  121  A    between atoms: _310  and  _311
REMARK  122  A    between atoms: _311  and  _312
REMARK  123  A    between atoms: _315  and  _317
REMARK  124  A    between atoms: _317  and  _318
REMARK  125  A    between atoms: _317  and  _320
REMARK  126  A    between atoms: _320  and  _321
REMARK  127  A    between atoms: _323  and  _325
REMARK  128  A    between atoms: _325  and  _326
REMARK  129  A    between atoms: _329  and  _331
REMARK  130  A    between atoms: _331  and  _332
REMARK  131  A    between atoms: _334  and  _336
REMARK  132  A    between atoms: _336  and  _337
REMARK  133  A    between atoms: _336  and  _339
REMARK  134  A    between atoms: _339  and  _340
REMARK  135  A    between atoms: _340  and  _341
REMARK  136  A    between atoms: _346  and  _348
REMARK  137  A    between atoms: _348  and  _349
REMARK  138  A    between atoms: _348  and  _351
REMARK  139  A    between atoms: _351  and  _352
REMARK  140  A    between atoms: _354  and  _356
REMARK  141  A    between atoms: _356  and  _357
REMARK  142  A    between atoms: _356  and  _359
REMARK  143  A    between atoms: _359  and  _360
REMARK  144  A    between atoms: _360  and  _361
REMARK  145  A    between atoms: _364  and  _366
REMARK  146  A    between atoms: _366  and  _367
REMARK  147  A    between atoms: _366  and  _369
REMARK  148  A    between atoms: _369  and  _370
REMARK  149  A    between atoms: _380  and  _382
REMARK  150  A    between atoms: _382  and  _383
REMARK  151  A    between atoms: _382  and  _385
REMARK  152  A    between atoms: _385  and  _386
REMARK  153  A    between atoms: _391  and  _393
REMARK  154  A    between atoms: _393  and  _394
REMARK  155  A    between atoms: _393  and  _396
REMARK  156  A    between atoms: _396  and  _397
REMARK  157  A    between atoms: _400  and  _402
REMARK  158  A    between atoms: _402  and  _403
REMARK  159  A    between atoms: _402  and  _405
REMARK  160  A    between atoms: _405  and  _406
REMARK  161  A    between atoms: _412  and  _414
REMARK  162  A    between atoms: _414  and  _415
REMARK  163  A    between atoms: _414  and  _417
REMARK  164  A    between atoms: _417  and  _418
REMARK  165  A    between atoms: _421  and  _423
REMARK  166  A    between atoms: _423  and  _424
REMARK  167  A    between atoms: _423  and  _426
REMARK  168  A    between atoms: _426  and  _427
REMARK  169  A    between atoms: _429  and  _431
REMARK  170  A    between atoms: _431  and  _432
REMARK  171  A    between atoms: _431  and  _434
REMARK  172  A    between atoms: _434  and  _435
REMARK  173  A    between atoms: _438  and  _440
REMARK  174  A    between atoms: _440  and  _441
REMARK  175  A    between atoms: _440  and  _443
REMARK  176  A    between atoms: _443  and  _444
REMARK  177  A    between atoms: _450  and  _452
REMARK  178  A    between atoms: _452  and  _453
REMARK  179  A    between atoms: _452  and  _455
REMARK  180  A    between atoms: _455  and  _456
REMARK  181  A    between atoms: _456  and  _457
REMARK  182  A    between atoms: _457  and  _458
REMARK  183  A    between atoms: _467  and  _469
REMARK  184  A    between atoms: _469  and  _470
REMARK  185  A    between atoms: _469  and  _472
REMARK  186  A    between atoms: _472  and  _473
REMARK  187  A    between atoms: _479  and  _481
REMARK  188  A    between atoms: _481  and  _482
REMARK  189  A    between atoms: _481  and  _484
REMARK  190  A    between atoms: _484  and  _485
REMARK  191  A    between atoms: _487  and  _489
REMARK  192  A    between atoms: _489  and  _490
REMARK  193  A    between atoms: _489  and  _492
REMARK  194  A    between atoms: _492  and  _493
REMARK  195  A    between atoms: _498  and  _500
REMARK  196  A    between atoms: _500  and  _501
REMARK  197  A    between atoms: _500  and  _503
REMARK  198  A    between atoms: _503  and  _504
REMARK  199  A    between atoms: _504  and  _505
REMARK  200  A    between atoms: _508  and  _510
REMARK  201  A    between atoms: _510  and  _511
REMARK  202  A    between atoms: _513  and  _515
REMARK  203  A    between atoms: _515  and  _516
REMARK  204  A    between atoms: _515  and  _518
REMARK  205  A    between atoms: _518  and  _519
REMARK  206  A    between atoms: _521  and  _523
REMARK  207  A    between atoms: _523  and  _524
REMARK  208  A    between atoms: _523  and  _526
REMARK  209  A    between atoms: _526  and  _527
REMARK  210  A    between atoms: _533  and  _535
REMARK  211  A    between atoms: _535  and  _536
REMARK  212  A    between atoms: _535  and  _538
REMARK  213  A    between atoms: _538  and  _539
REMARK  214  A    between atoms: _545  and  _547
REMARK  215  A    between atoms: _547  and  _548
REMARK  216  A    between atoms: _547  and  _550
REMARK  217  A    between atoms: _550  and  _551
REMARK  218  A    between atoms: _554  and  _556
REMARK  219  A    between atoms: _556  and  _557
REMARK  220  A    between atoms: _556  and  _559
REMARK  221  A    between atoms: _559  and  _560
REMARK  222  A    between atoms: _563  and  _565
REMARK  223  A    between atoms: _565  and  _566
REMARK  224  A    between atoms: _565  and  _568
REMARK  225  A    between atoms: _568  and  _569
REMARK  226  A    between atoms: _574  and  _575
REMARK  227  A    between atoms: _577  and  _579
REMARK  228  A    between atoms: _579  and  _580
REMARK  229  A    between atoms: _582  and  _584
REMARK  230  A    between atoms: _584  and  _585
REMARK  231  A    between atoms: _588  and  _590
REMARK  232  A    between atoms: _590  and  _591
REMARK  233  A    between atoms: _590  and  _593
REMARK  234  A    between atoms: _593  and  _594
REMARK  235  A    between atoms: _597  and  _599
REMARK  236  A    between atoms: _599  and  _600
REMARK  237  A    between atoms: _599  and  _602
REMARK  238  A    between atoms: _602  and  _603
REMARK  239  A    between atoms: _605  and  _607
REMARK  240  A    between atoms: _607  and  _608
REMARK  241  A    between atoms: _607  and  _610
REMARK  242  A    between atoms: _613  and  _615
REMARK  243  A    between atoms: _615  and  _616
REMARK  244  A    between atoms: _615  and  _618
REMARK  245  A    between atoms: _618  and  _619
REMARK  246  A    between atoms: _624  and  _626
REMARK  247  A    between atoms: _626  and  _627
REMARK  248  A    between atoms: _626  and  _629
REMARK  249  A    between atoms: _629  and  _630
REMARK  250  A    between atoms: _640  and  _642
REMARK  251  A    between atoms: _642  and  _643
REMARK  252  A    between atoms: _642  and  _645
REMARK  253  A    between atoms: _645  and  _646
REMARK  254  A    between atoms: _646  and  _647
REMARK  255  A    between atoms: _649  and  _651
REMARK  256  A    between atoms: _651  and  _652
REMARK  257  A    between atoms: _651  and  _654
REMARK  258  A    between atoms: _654  and  _655
REMARK  259  A    between atoms: _658  and  _660
REMARK  260  A    between atoms: _660  and  _661
REMARK  261  A    between atoms: _660  and  _663
REMARK  262  A    between atoms: _663  and  _664
REMARK  263  A    between atoms: _669  and  _671
REMARK  264  A    between atoms: _671  and  _672
REMARK  265  A    between atoms: _674  and  _676
REMARK  266  A    between atoms: _676  and  _677
REMARK  267  A    between atoms: _676  and  _679
REMARK  268  A    between atoms: _679  and  _680
REMARK  269  A    between atoms: _685  and  _686
REMARK  270  A    between atoms: _688  and  _690
REMARK  271  A    between atoms: _690  and  _691
REMARK  272  A    between atoms: _690  and  _693
REMARK  273  A    between atoms: _693  and  _694
REMARK  274  A    between atoms: _694  and  _695
REMARK  275  A    between atoms: _698  and  _700
REMARK  276  A    between atoms: _700  and  _701
REMARK  277  A    between atoms: _700  and  _703
REMARK  278  A    between atoms: _703  and  _704
REMARK                            x       y       z     vdW  Elec       q    Type
REMARK                         _______ _______ _______ _____ _____    ______ ____
ROOT
ATOM      1  O   HOH     1       0.316  66.115  71.227  0.00  0.00    +0.000 OA
ENDROOT
TORSDOF 0
REMARK  Name = ../refined-set-2016/1h23/1h23_pocket.pdb
REMARK  278 active torsions:
REMARK  status: ('A' for Active; 'I' for Inactive)
REMARK    1  A    between atoms: _1  and  _3
REMARK    2  A    between atoms: _3  and  _4
REMARK    3  A    between atoms: _3  and  _6
REMARK    4  A    between atoms: _6  and  _7
REMARK    5  A    between atoms: _7  and  _8
REMARK    6  A    between atoms: _13  and  _15
REMARK    7  A    between atoms: _15  and  _16
REMARK    8  A    between atoms: _15  and  _18
REMARK    9  A    between atoms: _18  and  _19
REMARK   10  A    between atoms: _24  and  _25
REMARK   11  A    between atoms: _27  and  _29
REMARK   12  A    between atoms: _29  and  _30
REMARK   13  A    between atoms: _29  and  _32
REMARK   14  A    between atoms: _35  and  _37
REMARK   15  A    between atoms: _37  and  _38
REMARK   16  A    between atoms: _37  and  _40
REMARK   17  A    between atoms: _40  and  _41
REMARK   18  A    between atoms: _44  and  _46
REMARK   19  A    between atoms: _46  and  _47
REMARK   20  A    between atoms: _46  and  _49
REMARK   21  A    between atoms: _49  and  _50
REMARK   22  A    between atoms: _50  and  _51
REMARK   23  A    between atoms: _54  and  _56
REMARK   24  A    between atoms: _56  and  _57
REMARK   25  A    between atoms: _56  and  _59
REMARK   26  A    between atoms: _59  and  _60
REMARK   27  A    between atoms: _60  and  _61
REMARK   28  A    between atoms: _66  and  _68
REMARK   29  A    between atoms: _68  and  _69
REMARK   30  A    between atoms: _68  and  _71
REMARK   31  A    between atoms: _71  and  _72
REMARK   32  A    between atoms: _78  and  _80
REMARK   33  A    between atoms: _80  and  _81
REMARK   34  A    between atoms: _83  and  _85
REMARK   35  A    between atoms: _85  and  _86
REMARK   36  A    between atoms: _85  and  _88
REMARK   37  A    between atoms: _88  and  _89
REMARK   38  A    between atoms: _91  and  _93
REMARK   39  A    between atoms: _93  and  _94
REMARK   40  A    between atoms: _93  and  _96
REMARK   41  A    between atoms: _96  and  _97
REMARK   42  A    between atoms: _97  and  _98
REMARK   43  A    between atoms: _100  and  _102
REMARK   44  A    between atoms: _102  and  _103
REMARK   45  A    between atoms: _102  and  _105
REMARK   46  A    between atoms: _105  and  _106
REMARK   47  A    between atoms: _116  and  _118
REMARK   48  A    between atoms: _118  and  _119
REMARK   49  A    between atoms: _118  and  _121
REMARK   50  A    between atoms: _121  and  _122
REMARK   51  A    between atoms: _128  and  _129
REMARK   52  A    between atoms: _134  and  _136
REMARK   53  A    between atoms: _136  and  _137
REMARK   54  A    between atoms: _136  and  _139
REMARK   55  A    between atoms: _139  and  _140
REMARK   56  A    between atoms: _150  and  _152
REMARK   57  A    between atoms: _152  and  _153
REMARK   58  A    between atoms: _152  and  _155
REMARK   59  A    between atoms: _155  and  _156
REMARK   60  A    between atoms: _159  and  _161
REMARK   61  A    between atoms: _161  and  _162
REMARK   62  A    between atoms: _161  and  _164
REMARK   63  A    between atoms: _164  and  _165
REMARK   64  A    between atoms: _170  and  _171
REMARK   65  A    between atoms: _173  and  _175
REMARK   66  A    between atoms: _175  and  _176
REMARK   67  A    between atoms: _178  and  _180
REMARK   68  A    between atoms: _180  and  _181
REMARK   69  A    between atoms: _183  and  _185
REMARK   70  A    between atoms: _185  and  _186
REMARK   71  A    between atoms: _188  and  _190
REMARK   72  A    between atoms: _190  and  _191
REMARK   73  A    between atoms: _190  and  _193
REMARK   74  A    between atoms: _193  and  _194
REMARK   75  A    between atoms: _200  and  _202
REMARK   76  A    between atoms: _202  and  _203
REMARK   77  A    between atoms: _202  and  _205
REMARK   78  A    between atoms: _205  and  _206
REMARK   79  A    between atoms: _211  and  _212
REMARK   80  A    between atoms: _214  and  _216
REMARK   81  A    between atoms: _216  and  _217
REMARK   82  A    between atoms: _216  and  _219
REMARK   83  A    between atoms: _219  and  _220
REMARK   84  A    between atoms: _222  and  _224
REMARK   85  A    between atoms: _224  and  _225
REMARK   86  A    between atoms: _227  and  _229
REMARK   87  A    between atoms: _229  and  _230
REMARK   88  A    between atoms: _229  and  _232
REMARK   89  A    between atoms: _232  and  _233
REMARK   90  A    between atoms: _235  and  _237
REMARK   91  A    between atoms: _237  and  _238
REMARK   92  A    between atoms: _237  and  _240
REMARK   93  A    between atoms: _240  and  _241
REMARK   94  A    between atoms: _243  and  _245
REMARK   95  A    between atoms: _245  and  _246
REMARK   96  A    between atoms: _245  and  _248
REMARK   97  A    between atoms: _248  and  _249
REMARK   98  A    between atoms: _252  and  _254
REMARK   99  A    between atoms: _254  and  _255
REMARK  100  A    between atoms: _254  and  _257
REMARK  101  A    between atoms: _257  and  _258
REMARK  102  A    between atoms: _261  and  _263
REMARK  103  A    between atoms: _263  and  _264
REMARK  104  A    between atoms: _263  and  _266
REMARK  105  A    between atoms: _269  and  _271
REMARK  106  A    between atoms: _271  and  _272
REMARK  107  A    between atoms: _271  and  _274
REMARK  108  A    between atoms: _274  and  _275
REMARK  109  A    between atoms: _280  and  _281
REMARK  110  A    between atoms: _283  and  _285
REMARK  111  A    between atoms: _285  and  _286
REMARK  112  A    between atoms: _285  and  _288
REMARK  113  A    between atoms: _288  and  _289
REMARK  114  A    between atoms: _294  and  _295
REMARK  115  A    between atoms: _297  and  _299
REMARK  116  A    between atoms: _299  and  _300
REMARK  117  A    between atoms: _299  and  _302
REMARK  118  A    between atoms: _305  and  _307
REMARK  119  A    between atoms: _307  and  _308
REMARK  120  A    between atoms: _307  and  _310
REMARK  121  A    between atoms: _310  and  _311
REMARK  122  A    between atoms: _311  and  _312
REMARK  123  A    between atoms: _315  and  _317
REMARK  124  A    between atoms: _317  and  _318
REMARK  125  A    between atoms: _317  and  _320
REMARK  126  A    between atoms: _320  and  _321
REMARK  127  A    between atoms: _323  and  _325
REMARK  128  A    between atoms: _325  and  _326
REMARK  129  A    between atoms: _329  and  _331
REMARK  130  A    between atoms: _331  and  _332
REMARK  131  A    between atoms: _334  and  _336
REMARK  132  A    between atoms: _336  and  _337
REMARK  133  A    between atoms: _336  and  _339
REMARK  134  A    between atoms: _339  and  _340
REMARK  135  A    between atoms: _340  and  _341
REMARK  136  A    between atoms: _346  and  _348
REMARK  137  A    between atoms: _348  and  _349
REMARK  138  A    between atoms: _348  and  _351
REMARK  139  A    between atoms: _351  and  _352
REMARK  140  A    between atoms: _354  and  _356
REMARK  141  A    between atoms: _356  and  _357
REMARK  142  A    between atoms: _356  and  _359
REMARK  143  A    between atoms: _359  and  _360
REMARK  144  A    between atoms: _360  and  _361
REMARK  145  A    between atoms: _364  and  _366
REMARK  146  A    between atoms: _366  and  _367
REMARK  147  A    between atoms: _366  and  _369
REMARK  148  A    between atoms: _369  and  _370
REMARK  149  A    between atoms: _380  and  _382
REMARK  150  A    between atoms: _382  and  _383
REMARK  151  A    between atoms: _382  and  _385
REMARK  152  A    between atoms: _385  and  _386
REMARK  153  A    between atoms: _391  and  _393
REMARK  154  A    between atoms: _393  and  _394
REMARK  155  A    between atoms: _393  and  _396
REMARK  156  A    between atoms: _396  and  _397
REMARK  157  A    between atoms: _400  and  _402
REMARK  158  A    between atoms: _402  and  _403
REMARK  159  A    between atoms: _402  and  _405
REMARK  160  A    between atoms: _405  and  _406
REMARK  161  A    between atoms: _412  and  _414
REMARK  162  A    between atoms: _414  and  _415
REMARK  163  A    between atoms: _414  and  _417
REMARK  164  A    between atoms: _417  and  _418
REMARK  165  A    between atoms: _421  and  _423
REMARK  166  A    between atoms: _423  and  _424
REMARK  167  A    between atoms: _423  and  _426
REMARK  168  A    between atoms: _426  and  _427
REMARK  169  A    between atoms: _429  and  _431
REMARK  170  A    between atoms: _431  and  _432
REMARK  171  A    between atoms: _431  and  _434
REMARK  172  A    between atoms: _434  and  _435
REMARK  173  A    between atoms: _438  and  _440
REMARK  174  A    between atoms: _440  and  _441
REMARK  175  A    between atoms: _440  and  _443
REMARK  176  A    between atoms: _443  and  _444
REMARK  177  A    between atoms: _450  and  _452
REMARK  178  A    between atoms: _452  and  _453
REMARK  179  A    between atoms: _452  and  _455
REMARK  180  A    between atoms: _455  and  _456
REMARK  181  A    between atoms: _456  and  _457
REMARK  182  A    between atoms: _457  and  _458
REMARK  183  A    between atoms: _467  and  _469
REMARK  184  A    between atoms: _469  and  _470
REMARK  185  A    between atoms: _469  and  _472
REMARK  186  A    between atoms: _472  and  _473
REMARK  187  A    between atoms: _479  and  _481
REMARK  188  A    between atoms: _481  and  _482
REMARK  189  A    between atoms: _481  and  _484
REMARK  190  A    between atoms: _484  and  _485
REMARK  191  A    between atoms: _487  and  _489
REMARK  192  A    between atoms: _489  and  _490
REMARK  193  A    between atoms: _489  and  _492
REMARK  194  A    between atoms: _492  and  _493
REMARK  195  A    between atoms: _498  and  _500
REMARK  196  A    between atoms: _500  and  _501
REMARK  197  A    between atoms: _500  and  _503
REMARK  198  A    between atoms: _503  and  _504
REMARK  199  A    between atoms: _504  and  _505
REMARK  200  A    between atoms: _508  and  _510
REMARK  201  A    between atoms: _510  and  _511
REMARK  202  A    between atoms: _513  and  _515
REMARK  203  A    between atoms: _515  and  _516
REMARK  204  A    between atoms: _515  and  _518
REMARK  205  A    between atoms: _518  and  _519
REMARK  206  A    between atoms: _521  and  _523
REMARK  207  A    between atoms: _523  and  _524
REMARK  208  A    between atoms: _523  and  _526
REMARK  209  A    between atoms: _526  and  _527
REMARK  210  A    between atoms: _533  and  _535
REMARK  211  A    between atoms: _535  and  _536
REMARK  212  A    between atoms: _535  and  _538
REMARK  213  A    between atoms: _538  and  _539
REMARK  214  A    between atoms: _545  and  _547
REMARK  215  A    between atoms: _547  and  _548
REMARK  216  A    between atoms: _547  and  _550
REMARK  217  A    between atoms: _550  and  _551
REMARK  218  A    between atoms: _554  and  _556
REMARK  219  A    between atoms: _556  and  _557
REMARK  220  A    between atoms: _556  and  _559
REMARK  221  A    between atoms: _559  and  _560
REMARK  222  A    between atoms: _563  and  _565
REMARK  223  A    between atoms: _565  and  _566
REMARK  224  A    between atoms: _565  and  _568
REMARK  225  A    between atoms: _568  and  _569
REMARK  226  A    between atoms: _574  and  _575
REMARK  227  A    between atoms: _577  and  _579
REMARK  228  A    between atoms: _579  and  _580
REMARK  229  A    between atoms: _582  and  _584
REMARK  230  A    between atoms: _584  and  _585
REMARK  231  A    between atoms: _588  and  _590
REMARK  232  A    between atoms: _590  and  _591
REMARK  233  A    between atoms: _590  and  _593
REMARK  234  A    between atoms: _593  and  _594
REMARK  235  A    between atoms: _597  and  _599
REMARK  236  A    between atoms: _599  and  _600
REMARK  237  A    between atoms: _599  and  _602
REMARK  238  A    between atoms: _602  and  _603
REMARK  239  A    between atoms: _605  and  _607
REMARK  240  A    between atoms: _607  and  _608
REMARK  241  A    between atoms: _607  and  _610
REMARK  242  A    between atoms: _613  and  _615
REMARK  243  A    between atoms: _615  and  _616
REMARK  244  A    between atoms: _615  and  _618
REMARK  245  A    between atoms: _618  and  _619
REMARK  246  A    between atoms: _624  and  _626
REMARK  247  A    between atoms: _626  and  _627
REMARK  248  A    between atoms: _626  and  _629
REMARK  249  A    between atoms: _629  and  _630
REMARK  250  A    between atoms: _640  and  _642
REMARK  251  A    between atoms: _642  and  _643
REMARK  252  A    between atoms: _642  and  _645
REMARK  253  A    between atoms: _645  and  _646
REMARK  254  A    between atoms: _646  and  _647
REMARK  255  A    between atoms: _649  and  _651
REMARK  256  A    between atoms: _651  and  _652
REMARK  257  A    between atoms: _651  and  _654
REMARK  258  A    between atoms: _654  and  _655
REMARK  259  A    between atoms: _658  and  _660
REMARK  260  A    between atoms: _660  and  _661
REMARK  261  A    between atoms: _660  and  _663
REMARK  262  A    between atoms: _663  and  _664
REMARK  263  A    between atoms: _669  and  _671
REMARK  264  A    between atoms: _671  and  _672
REMARK  265  A    between atoms: _674  and  _676
REMARK  266  A    between atoms: _676  and  _677
REMARK  267  A    between atoms: _676  and  _679
REMARK  268  A    between atoms: _679  and  _680
REMARK  269  A    between atoms: _685  and  _686
REMARK  270  A    between atoms: _688  and  _690
REMARK  271  A    between atoms: _690  and  _691
REMARK  272  A    between atoms: _690  and  _693
REMARK  273  A    between atoms: _693  and  _694
REMARK  274  A    between atoms: _694  and  _695
REMARK  275  A    between atoms: _698  and  _700
REMARK  276  A    between atoms: _700  and  _701
REMARK  277  A    between atoms: _700  and  _703
REMARK  278  A    between atoms: _703  and  _704
REMARK                            x       y       z     vdW  Elec       q    Type
REMARK                         _______ _______ _______ _____ _____    ______ ____
ROOT
ATOM      1  O   HOH     1      -0.748  66.059  73.513  0.00  0.00    +0.000 OA
ENDROOT
TORSDOF 0
REMARK  Name = ../refined-set-2016/1h23/1h23_pocket.pdb
REMARK  278 active torsions:
REMARK  status: ('A' for Active; 'I' for Inactive)
REMARK    1  A    between atoms: _1  and  _3
REMARK    2  A    between atoms: _3  and  _4
REMARK    3  A    between atoms: _3  and  _6
REMARK    4  A    between atoms: _6  and  _7
REMARK    5  A    between atoms: _7  and  _8
REMARK    6  A    between atoms: _13  and  _15
REMARK    7  A    between atoms: _15  and  _16
REMARK    8  A    between atoms: _15  and  _18
REMARK    9  A    between atoms: _18  and  _19
REMARK   10  A    between atoms: _24  and  _25
REMARK   11  A    between atoms: _27  and  _29
REMARK   12  A    between atoms: _29  and  _30
REMARK   13  A    between atoms: _29  and  _32
REMARK   14  A    between atoms: _35  and  _37
REMARK   15  A    between atoms: _37  and  _38
REMARK   16  A    between atoms: _37  and  _40
REMARK   17  A    between atoms: _40  and  _41
REMARK   18  A    between atoms: _44  and  _46
REMARK   19  A    between atoms: _46  and  _47
REMARK   20  A    between atoms: _46  and  _49
REMARK   21  A    between atoms: _49  and  _50
REMARK   22  A    between atoms: _50  and  _51
REMARK   23  A    between atoms: _54  and  _56
REMARK   24  A    between atoms: _56  and  _57
REMARK   25  A    between atoms: _56  and  _59
REMARK   26  A    between atoms: _59  and  _60
REMARK   27  A    between atoms: _60  and  _61
REMARK   28  A    between atoms: _66  and  _68
REMARK   29  A    between atoms: _68  and  _69
REMARK   30  A    between atoms: _68  and  _71
REMARK   31  A    between atoms: _71  and  _72
REMARK   32  A    between atoms: _78  and  _80
REMARK   33  A    between atoms: _80  and  _81
REMARK   34  A    between atoms: _83  and  _85
REMARK   35  A    between atoms: _85  and  _86
REMARK   36  A    between atoms: _85  and  _88
REMARK   37  A    between atoms: _88  and  _89
REMARK   38  A    between atoms: _91  and  _93
REMARK   39  A    between atoms: _93  and  _94
REMARK   40  A    between atoms: _93  and  _96
REMARK   41  A    between atoms: _96  and  _97
REMARK   42  A    between atoms: _97  and  _98
REMARK   43  A    between atoms: _100  and  _102
REMARK   44  A    between atoms: _102  and  _103
REMARK   45  A    between atoms: _102  and  _105
REMARK   46  A    between atoms: _105  and  _106
REMARK   47  A    between atoms: _116  and  _118
REMARK   48  A    between atoms: _118  and  _119
REMARK   49  A    between atoms: _118  and  _121
REMARK   50  A    between atoms: _121  and  _122
REMARK   51  A    between atoms: _128  and  _129
REMARK   52  A    between atoms: _134  and  _136
REMARK   53  A    between atoms: _136  and  _137
REMARK   54  A    between atoms: _136  and  _139
REMARK   55  A    between atoms: _139  and  _140
REMARK   56  A    between atoms: _150  and  _152
REMARK   57  A    between atoms: _152  and  _153
REMARK   58  A    between atoms: _152  and  _155
REMARK   59  A    between atoms: _155  and  _156
REMARK   60  A    between atoms: _159  and  _161
REMARK   61  A    between atoms: _161  and  _162
REMARK   62  A    between atoms: _161  and  _164
REMARK   63  A    between atoms: _164  and  _165
REMARK   64  A    between atoms: _170  and  _171
REMARK   65  A    between atoms: _173  and  _175
REMARK   66  A    between atoms: _175  and  _176
REMARK   67  A    between atoms: _178  and  _180
REMARK   68  A    between atoms: _180  and  _181
REMARK   69  A    between atoms: _183  and  _185
REMARK   70  A    between atoms: _185  and  _186
REMARK   71  A    between atoms: _188  and  _190
REMARK   72  A    between atoms: _190  and  _191
REMARK   73  A    between atoms: _190  and  _193
REMARK   74  A    between atoms: _193  and  _194
REMARK   75  A    between atoms: _200  and  _202
REMARK   76  A    between atoms: _202  and  _203
REMARK   77  A    between atoms: _202  and  _205
REMARK   78  A    between atoms: _205  and  _206
REMARK   79  A    between atoms: _211  and  _212
REMARK   80  A    between atoms: _214  and  _216
REMARK   81  A    between atoms: _216  and  _217
REMARK   82  A    between atoms: _216  and  _219
REMARK   83  A    between atoms: _219  and  _220
REMARK   84  A    between atoms: _222  and  _224
REMARK   85  A    between atoms: _224  and  _225
REMARK   86  A    between atoms: _227  and  _229
REMARK   87  A    between atoms: _229  and  _230
REMARK   88  A    between atoms: _229  and  _232
REMARK   89  A    between atoms: _232  and  _233
REMARK   90  A    between atoms: _235  and  _237
REMARK   91  A    between atoms: _237  and  _238
REMARK   92  A    between atoms: _237  and  _240
REMARK   93  A    between atoms: _240  and  _241
REMARK   94  A    between atoms: _243  and  _245
REMARK   95  A    between atoms: _245  and  _246
REMARK   96  A    between atoms: _245  and  _248
REMARK   97  A    between atoms: _248  and  _249
REMARK   98  A    between atoms: _252  and  _254
REMARK   99  A    between atoms: _254  and  _255
REMARK  100  A    between atoms: _254  and  _257
REMARK  101  A    between atoms: _257  and  _258
REMARK  102  A    between atoms: _261  and  _263
REMARK  103  A    between atoms: _263  and  _264
REMARK  104  A    between atoms: _263  and  _266
REMARK  105  A    between atoms: _269  and  _271
REMARK  106  A    between atoms: _271  and  _272
REMARK  107  A    between atoms: _271  and  _274
REMARK  108  A    between atoms: _274  and  _275
REMARK  109  A    between atoms: _280  and  _281
REMARK  110  A    between atoms: _283  and  _285
REMARK  111  A    between atoms: _285  and  _286
REMARK  112  A    between atoms: _285  and  _288
REMARK  113  A    between atoms: _288  and  _289
REMARK  114  A    between atoms: _294  and  _295
REMARK  115  A    between atoms: _297  and  _299
REMARK  116  A    between atoms: _299  and  _300
REMARK  117  A    between atoms: _299  and  _302
REMARK  118  A    between atoms: _305  and  _307
REMARK  119  A    between atoms: _307  and  _308
REMARK  120  A    between atoms: _307  and  _310
REMARK  121  A    between atoms: _310  and  _311
REMARK  122  A    between atoms: _311  and  _312
REMARK  123  A    between atoms: _315  and  _317
REMARK  124  A    between atoms: _317  and  _318
REMARK  125  A    between atoms: _317  and  _320
REMARK  126  A    between atoms: _320  and  _321
REMARK  127  A    between atoms: _323  and  _325
REMARK  128  A    between atoms: _325  and  _326
REMARK  129  A    between atoms: _329  and  _331
REMARK  130  A    between atoms: _331  and  _332
REMARK  131  A    between atoms: _334  and  _336
REMARK  132  A    between atoms: _336  and  _337
REMARK  133  A    between atoms: _336  and  _339
REMARK  134  A    between atoms: _339  and  _340
REMARK  135  A    between atoms: _340  and  _341
REMARK  136  A    between atoms: _346  and  _348
REMARK  137  A    between atoms: _348  and  _349
REMARK  138  A    between atoms: _348  and  _351
REMARK  139  A    between atoms: _351  and  _352
REMARK  140  A    between atoms: _354  and  _356
REMARK  141  A    between atoms: _356  and  _357
REMARK  142  A    between atoms: _356  and  _359
REMARK  143  A    between atoms: _359  and  _360
REMARK  144  A    between atoms: _360  and  _361
REMARK  145  A    between atoms: _364  and  _366
REMARK  146  A    between atoms: _366  and  _367
REMARK  147  A    between atoms: _366  and  _369
REMARK  148  A    between atoms: _369  and  _370
REMARK  149  A    between atoms: _380  and  _382
REMARK  150  A    between atoms: _382  and  _383
REMARK  151  A    between atoms: _382  and  _385
REMARK  152  A    between atoms: _385  and  _386
REMARK  153  A    between atoms: _391  and  _393
REMARK  154  A    between atoms: _393  and  _394
REMARK  155  A    between atoms: _393  and  _396
REMARK  156  A    between atoms: _396  and  _397
REMARK  157  A    between atoms: _400  and  _402
REMARK  158  A    between atoms: _402  and  _403
REMARK  159  A    between atoms: _402  and  _405
REMARK  160  A    between atoms: _405  and  _406
REMARK  161  A    between atoms: _412  and  _414
REMARK  162  A    between atoms: _414  and  _415
REMARK  163  A    between atoms: _414  and  _417
REMARK  164  A    between atoms: _417  and  _418
REMARK  165  A    between atoms: _421  and  _423
REMARK  166  A    between atoms: _423  and  _424
REMARK  167  A    between atoms: _423  and  _426
REMARK  168  A    between atoms: _426  and  _427
REMARK  169  A    between atoms: _429  and  _431
REMARK  170  A    between atoms: _431  and  _432
REMARK  171  A    between atoms: _431  and  _434
REMARK  172  A    between atoms: _434  and  _435
REMARK  173  A    between atoms: _438  and  _440
REMARK  174  A    between atoms: _440  and  _441
REMARK  175  A    between atoms: _440  and  _443
REMARK  176  A    between atoms: _443  and  _444
REMARK  177  A    between atoms: _450  and  _452
REMARK  178  A    between atoms: _452  and  _453
REMARK  179  A    between atoms: _452  and  _455
REMARK  180  A    between atoms: _455  and  _456
REMARK  181  A    between atoms: _456  and  _457
REMARK  182  A    between atoms: _457  and  _458
REMARK  183  A    between atoms: _467  and  _469
REMARK  184  A    between atoms: _469  and  _470
REMARK  185  A    between atoms: _469  and  _472
REMARK  186  A    between atoms: _472  and  _473
REMARK  187  A    between atoms: _479  and  _481
REMARK  188  A    between atoms: _481  and  _482
REMARK  189  A    between atoms: _481  and  _484
REMARK  190  A    between atoms: _484  and  _485
REMARK  191  A    between atoms: _487  and  _489
REMARK  192  A    between atoms: _489  and  _490
REMARK  193  A    between atoms: _489  and  _492
REMARK  194  A    between atoms: _492  and  _493
REMARK  195  A    between atoms: _498  and  _500
REMARK  196  A    between atoms: _500  and  _501
REMARK  197  A    between atoms: _500  and  _503
REMARK  198  A    between atoms: _503  and  _504
REMARK  199  A    between atoms: _504  and  _505
REMARK  200  A    between atoms: _508  and  _510
REMARK  201  A    between atoms: _510  and  _511
REMARK  202  A    between atoms: _513  and  _515
REMARK  203  A    between atoms: _515  and  _516
REMARK  204  A    between atoms: _515  and  _518
REMARK  205  A    between atoms: _518  and  _519
REMARK  206  A    between atoms: _521  and  _523
REMARK  207  A    between atoms: _523  and  _524
REMARK  208  A    between atoms: _523  and  _526
REMARK  209  A    between atoms: _526  and  _527
REMARK  210  A    between atoms: _533  and  _535
REMARK  211  A    between atoms: _535  and  _536
REMARK  212  A    between atoms: _535  and  _538
REMARK  213  A    between atoms: _538  and  _539
REMARK  214  A    between atoms: _545  and  _547
REMARK  215  A    between atoms: _547  and  _548
REMARK  216  A    between atoms: _547  and  _550
REMARK  217  A    between atoms: _550  and  _551
REMARK  218  A    between atoms: _554  and  _556
REMARK  219  A    between atoms: _556  and  _557
REMARK  220  A    between atoms: _556  and  _559
REMARK  221  A    between atoms: _559  and  _560
REMARK  222  A    between atoms: _563  and  _565
REMARK  223  A    between atoms: _565  and  _566
REMARK  224  A    between atoms: _565  and  _568
REMARK  225  A    between atoms: _568  and  _569
REMARK  226  A    between atoms: _574  and  _575
REMARK  227  A    between atoms: _577  and  _579
REMARK  228  A    between atoms: _579  and  _580
REMARK  229  A    between atoms: _582  and  _584
REMARK  230  A    between atoms: _584  and  _585
REMARK  231  A    between atoms: _588  and  _590
REMARK  232  A    between atoms: _590  and  _591
REMARK  233  A    between atoms: _590  and  _593
REMARK  234  A    between atoms: _593  and  _594
REMARK  235  A    between atoms: _597  and  _599
REMARK  236  A    between atoms: _599  and  _600
REMARK  237  A    between atoms: _599  and  _602
REMARK  238  A    between atoms: _602  and  _603
REMARK  239  A    between atoms: _605  and  _607
REMARK  240  A    between atoms: _607  and  _608
REMARK  241  A    between atoms: _607  and  _610
REMARK  242  A    between atoms: _613  and  _615
REMARK  243  A    between atoms: _615  and  _616
REMARK  244  A    between atoms: _615  and  _618
REMARK  245  A    between atoms: _618  and  _619
REMARK  246  A    between atoms: _624  and  _626
REMARK  247  A    between atoms: _626  and  _627
REMARK  248  A    between atoms: _626  and  _629
REMARK  249  A    between atoms: _629  and  _630
REMARK  250  A    between atoms: _640  and  _642
REMARK  251  A    between atoms: _642  and  _643
REMARK  252  A    between atoms: _642  and  _645
REMARK  253  A    between atoms: _645  and  _646
REMARK  254  A    between atoms: _646  and  _647
REMARK  255  A    between atoms: _649  and  _651
REMARK  256  A    between atoms: _651  and  _652
REMARK  257  A    between atoms: _651  and  _654
REMARK  258  A    between atoms: _654  and  _655
REMARK  259  A    between atoms: _658  and  _660
REMARK  260  A    between atoms: _660  and  _661
REMARK  261  A    between atoms: _660  and  _663
REMARK  262  A    between atoms: _663  and  _664
REMARK  263  A    between atoms: _669  and  _671
REMARK  264  A    between atoms: _671  and  _672
REMARK  265  A    between atoms: _674  and  _676
REMARK  266  A    between atoms: _676  and  _677
REMARK  267  A    between atoms: _676  and  _679
REMARK  268  A    between atoms: _679  and  _680
REMARK  269  A    between atoms: _685  and  _686
REMARK  270  A    between atoms: _688  and  _690
REMARK  271  A    between atoms: _690  and  _691
REMARK  272  A    between atoms: _690  and  _693
REMARK  273  A    between atoms: _693  and  _694
REMARK  274  A    between atoms: _694  and  _695
REMARK  275  A    between atoms: _698  and  _700
REMARK  276  A    between atoms: _700  and  _701
REMARK  277  A    between atoms: _700  and  _703
REMARK  278  A    between atoms: _703  and  _704
REMARK                            x       y       z     vdW  Elec       q    Type
REMARK                         _______ _______ _______ _____ _____    ______ ____
ROOT
ATOM      1  O   HOH     1      -0.139  64.881  76.087  0.00  0.00    +0.000 OA
ENDROOT
TORSDOF 0
REMARK  Name = ../refined-set-2016/1h23/1h23_pocket.pdb
REMARK  278 active torsions:
REMARK  status: ('A' for Active; 'I' for Inactive)
REMARK    1  A    between atoms: _1  and  _3
REMARK    2  A    between atoms: _3  and  _4
REMARK    3  A    between atoms: _3  and  _6
REMARK    4  A    between atoms: _6  and  _7
REMARK    5  A    between atoms: _7  and  _8
REMARK    6  A    between atoms: _13  and  _15
REMARK    7  A    between atoms: _15  and  _16
REMARK    8  A    between atoms: _15  and  _18
REMARK    9  A    between atoms: _18  and  _19
REMARK   10  A    between atoms: _24  and  _25
REMARK   11  A    between atoms: _27  and  _29
REMARK   12  A    between atoms: _29  and  _30
REMARK   13  A    between atoms: _29  and  _32
REMARK   14  A    between atoms: _35  and  _37
REMARK   15  A    between atoms: _37  and  _38
REMARK   16  A    between atoms: _37  and  _40
REMARK   17  A    between atoms: _40  and  _41
REMARK   18  A    between atoms: _44  and  _46
REMARK   19  A    between atoms: _46  and  _47
REMARK   20  A    between atoms: _46  and  _49
REMARK   21  A    between atoms: _49  and  _50
REMARK   22  A    between atoms: _50  and  _51
REMARK   23  A    between atoms: _54  and  _56
REMARK   24  A    between atoms: _56  and  _57
REMARK   25  A    between atoms: _56  and  _59
REMARK   26  A    between atoms: _59  and  _60
REMARK   27  A    between atoms: _60  and  _61
REMARK   28  A    between atoms: _66  and  _68
REMARK   29  A    between atoms: _68  and  _69
REMARK   30  A    between atoms: _68  and  _71
REMARK   31  A    between atoms: _71  and  _72
REMARK   32  A    between atoms: _78  and  _80
REMARK   33  A    between atoms: _80  and  _81
REMARK   34  A    between atoms: _83  and  _85
REMARK   35  A    between atoms: _85  and  _86
REMARK   36  A    between atoms: _85  and  _88
REMARK   37  A    between atoms: _88  and  _89
REMARK   38  A    between atoms: _91  and  _93
REMARK   39  A    between atoms: _93  and  _94
REMARK   40  A    between atoms: _93  and  _96
REMARK   41  A    between atoms: _96  and  _97
REMARK   42  A    between atoms: _97  and  _98
REMARK   43  A    between atoms: _100  and  _102
REMARK   44  A    between atoms: _102  and  _103
REMARK   45  A    between atoms: _102  and  _105
REMARK   46  A    between atoms: _105  and  _106
REMARK   47  A    between atoms: _116  and  _118
REMARK   48  A    between atoms: _118  and  _119
REMARK   49  A    between atoms: _118  and  _121
REMARK   50  A    between atoms: _121  and  _122
REMARK   51  A    between atoms: _128  and  _129
REMARK   52  A    between atoms: _134  and  _136
REMARK   53  A    between atoms: _136  and  _137
REMARK   54  A    between atoms: _136  and  _139
REMARK   55  A    between atoms: _139  and  _140
REMARK   56  A    between atoms: _150  and  _152
REMARK   57  A    between atoms: _152  and  _153
REMARK   58  A    between atoms: _152  and  _155
REMARK   59  A    between atoms: _155  and  _156
REMARK   60  A    between atoms: _159  and  _161
REMARK   61  A    between atoms: _161  and  _162
REMARK   62  A    between atoms: _161  and  _164
REMARK   63  A    between atoms: _164  and  _165
REMARK   64  A    between atoms: _170  and  _171
REMARK   65  A    between atoms: _173  and  _175
REMARK   66  A    between atoms: _175  and  _176
REMARK   67  A    between atoms: _178  and  _180
REMARK   68  A    between atoms: _180  and  _181
REMARK   69  A    between atoms: _183  and  _185
REMARK   70  A    between atoms: _185  and  _186
REMARK   71  A    between atoms: _188  and  _190
REMARK   72  A    between atoms: _190  and  _191
REMARK   73  A    between atoms: _190  and  _193
REMARK   74  A    between atoms: _193  and  _194
REMARK   75  A    between atoms: _200  and  _202
REMARK   76  A    between atoms: _202  and  _203
REMARK   77  A    between atoms: _202  and  _205
REMARK   78  A    between atoms: _205  and  _206
REMARK   79  A    between atoms: _211  and  _212
REMARK   80  A    between atoms: _214  and  _216
REMARK   81  A    between atoms: _216  and  _217
REMARK   82  A    between atoms: _216  and  _219
REMARK   83  A    between atoms: _219  and  _220
REMARK   84  A    between atoms: _222  and  _224
REMARK   85  A    between atoms: _224  and  _225
REMARK   86  A    between atoms: _227  and  _229
REMARK   87  A    between atoms: _229  and  _230
REMARK   88  A    between atoms: _229  and  _232
REMARK   89  A    between atoms: _232  and  _233
REMARK   90  A    between atoms: _235  and  _237
REMARK   91  A    between atoms: _237  and  _238
REMARK   92  A    between atoms: _237  and  _240
REMARK   93  A    between atoms: _240  and  _241
REMARK   94  A    between atoms: _243  and  _245
REMARK   95  A    between atoms: _245  and  _246
REMARK   96  A    between atoms: _245  and  _248
REMARK   97  A    between atoms: _248  and  _249
REMARK   98  A    between atoms: _252  and  _254
REMARK   99  A    between atoms: _254  and  _255
REMARK  100  A    between atoms: _254  and  _257
REMARK  101  A    between atoms: _257  and  _258
REMARK  102  A    between atoms: _261  and  _263
REMARK  103  A    between atoms: _263  and  _264
REMARK  104  A    between atoms: _263  and  _266
REMARK  105  A    between atoms: _269  and  _271
REMARK  106  A    between atoms: _271  and  _272
REMARK  107  A    between atoms: _271  and  _274
REMARK  108  A    between atoms: _274  and  _275
REMARK  109  A    between atoms: _280  and  _281
REMARK  110  A    between atoms: _283  and  _285
REMARK  111  A    between atoms: _285  and  _286
REMARK  112  A    between atoms: _285  and  _288
REMARK  113  A    between atoms: _288  and  _289
REMARK  114  A    between atoms: _294  and  _295
REMARK  115  A    between atoms: _297  and  _299
REMARK  116  A    between atoms: _299  and  _300
REMARK  117  A    between atoms: _299  and  _302
REMARK  118  A    between atoms: _305  and  _307
REMARK  119  A    between atoms: _307  and  _308
REMARK  120  A    between atoms: _307  and  _310
REMARK  121  A    between atoms: _310  and  _311
REMARK  122  A    between atoms: _311  and  _312
REMARK  123  A    between atoms: _315  and  _317
REMARK  124  A    between atoms: _317  and  _318
REMARK  125  A    between atoms: _317  and  _320
REMARK  126  A    between atoms: _320  and  _321
REMARK  127  A    between atoms: _323  and  _325
REMARK  128  A    between atoms: _325  and  _326
REMARK  129  A    between atoms: _329  and  _331
REMARK  130  A    between atoms: _331  and  _332
REMARK  131  A    between atoms: _334  and  _336
REMARK  132  A    between atoms: _336  and  _337
REMARK  133  A    between atoms: _336  and  _339
REMARK  134  A    between atoms: _339  and  _340
REMARK  135  A    between atoms: _340  and  _341
REMARK  136  A    between atoms: _346  and  _348
REMARK  137  A    between atoms: _348  and  _349
REMARK  138  A    between atoms: _348  and  _351
REMARK  139  A    between atoms: _351  and  _352
REMARK  140  A    between atoms: _354  and  _356
REMARK  141  A    between atoms: _356  and  _357
REMARK  142  A    between atoms: _356  and  _359
REMARK  143  A    between atoms: _359  and  _360
REMARK  144  A    between atoms: _360  and  _361
REMARK  145  A    between atoms: _364  and  _366
REMARK  146  A    between atoms: _366  and  _367
REMARK  147  A    between atoms: _366  and  _369
REMARK  148  A    between atoms: _369  and  _370
REMARK  149  A    between atoms: _380  and  _382
REMARK  150  A    between atoms: _382  and  _383
REMARK  151  A    between atoms: _382  and  _385
REMARK  152  A    between atoms: _385  and  _386
REMARK  153  A    between atoms: _391  and  _393
REMARK  154  A    between atoms: _393  and  _394
REMARK  155  A    between atoms: _393  and  _396
REMARK  156  A    between atoms: _396  and  _397
REMARK  157  A    between atoms: _400  and  _402
REMARK  158  A    between atoms: _402  and  _403
REMARK  159  A    between atoms: _402  and  _405
REMARK  160  A    between atoms: _405  and  _406
REMARK  161  A    between atoms: _412  and  _414
REMARK  162  A    between atoms: _414  and  _415
REMARK  163  A    between atoms: _414  and  _417
REMARK  164  A    between atoms: _417  and  _418
REMARK  165  A    between atoms: _421  and  _423
REMARK  166  A    between atoms: _423  and  _424
REMARK  167  A    between atoms: _423  and  _426
REMARK  168  A    between atoms: _426  and  _427
REMARK  169  A    between atoms: _429  and  _431
REMARK  170  A    between atoms: _431  and  _432
REMARK  171  A    between atoms: _431  and  _434
REMARK  172  A    between atoms: _434  and  _435
REMARK  173  A    between atoms: _438  and  _440
REMARK  174  A    between atoms: _440  and  _441
REMARK  175  A    between atoms: _440  and  _443
REMARK  176  A    between atoms: _443  and  _444
REMARK  177  A    between atoms: _450  and  _452
REMARK  178  A    between atoms: _452  and  _453
REMARK  179  A    between atoms: _452  and  _455
REMARK  180  A    between atoms: _455  and  _456
REMARK  181  A    between atoms: _456  and  _457
REMARK  182  A    between atoms: _457  and  _458
REMARK  183  A    between atoms: _467  and  _469
REMARK  184  A    between atoms: _469  and  _470
REMARK  185  A    between atoms: _469  and  _472
REMARK  186  A    between atoms: _472  and  _473
REMARK  187  A    between atoms: _479  and  _481
REMARK  188  A    between atoms: _481  and  _482
REMARK  189  A    between atoms: _481  and  _484
REMARK  190  A    between atoms: _484  and  _485
REMARK  191  A    between atoms: _487  and  _489
REMARK  192  A    between atoms: _489  and  _490
REMARK  193  A    between atoms: _489  and  _492
REMARK  194  A    between atoms: _492  and  _493
REMARK  195  A    between atoms: _498  and  _500
REMARK  196  A    between atoms: _500  and  _501
REMARK  197  A    between atoms: _500  and  _503
REMARK  198  A    between atoms: _503  and  _504
REMARK  199  A    between atoms: _504  and  _505
REMARK  200  A    between atoms: _508  and  _510
REMARK  201  A    between atoms: _510  and  _511
REMARK  202  A    between atoms: _513  and  _515
REMARK  203  A    between atoms: _515  and  _516
REMARK  204  A    between atoms: _515  and  _518
REMARK  205  A    between atoms: _518  and  _519
REMARK  206  A    between atoms: _521  and  _523
REMARK  207  A    between atoms: _523  and  _524
REMARK  208  A    between atoms: _523  and  _526
REMARK  209  A    between atoms: _526  and  _527
REMARK  210  A    between atoms: _533  and  _535
REMARK  211  A    between atoms: _535  and  _536
REMARK  212  A    between atoms: _535  and  _538
REMARK  213  A    between atoms: _538  and  _539
REMARK  214  A    between atoms: _545  and  _547
REMARK  215  A    between atoms: _547  and  _548
REMARK  216  A    between atoms: _547  and  _550
REMARK  217  A    between atoms: _550  and  _551
REMARK  218  A    between atoms: _554  and  _556
REMARK  219  A    between atoms: _556  and  _557
REMARK  220  A    between atoms: _556  and  _559
REMARK  221  A    between atoms: _559  and  _560
REMARK  222  A    between atoms: _563  and  _565
REMARK  223  A    between atoms: _565  and  _566
REMARK  224  A    between atoms: _565  and  _568
REMARK  225  A    between atoms: _568  and  _569
REMARK  226  A    between atoms: _574  and  _575
REMARK  227  A    between atoms: _577  and  _579
REMARK  228  A    between atoms: _579  and  _580
REMARK  229  A    between atoms: _582  and  _584
REMARK  230  A    between atoms: _584  and  _585
REMARK  231  A    between atoms: _588  and  _590
REMARK  232  A    between atoms: _590  and  _591
REMARK  233  A    between atoms: _590  and  _593
REMARK  234  A    between atoms: _593  and  _594
REMARK  235  A    between atoms: _597  and  _599
REMARK  236  A    between atoms: _599  and  _600
REMARK  237  A    between atoms: _599  and  _602
REMARK  238  A    between atoms: _602  and  _603
REMARK  239  A    between atoms: _605  and  _607
REMARK  240  A    between atoms: _607  and  _608
REMARK  241  A    between atoms: _607  and  _610
REMARK  242  A    between atoms: _613  and  _615
REMARK  243  A    between atoms: _615  and  _616
REMARK  244  A    between atoms: _615  and  _618
REMARK  245  A    between atoms: _618  and  _619
REMARK  246  A    between atoms: _624  and  _626
REMARK  247  A    between atoms: _626  and  _627
REMARK  248  A    between atoms: _626  and  _629
REMARK  249  A    between atoms: _629  and  _630
REMARK  250  A    between atoms: _640  and  _642
REMARK  251  A    between atoms: _642  and  _643
REMARK  252  A    between atoms: _642  and  _645
REMARK  253  A    between atoms: _645  and  _646
REMARK  254  A    between atoms: _646  and  _647
REMARK  255  A    between atoms: _649  and  _651
REMARK  256  A    between atoms: _651  and  _652
REMARK  257  A    between atoms: _651  and  _654
REMARK  258  A    between atoms: _654  and  _655
REMARK  259  A    between atoms: _658  and  _660
REMARK  260  A    between atoms: _660  and  _661
REMARK  261  A    between atoms: _660  and  _663
REMARK  262  A    between atoms: _663  and  _664
REMARK  263  A    between atoms: _669  and  _671
REMARK  264  A    between atoms: _671  and  _672
REMARK  265  A    between atoms: _674  and  _676
REMARK  266  A    between atoms: _676  and  _677
REMARK  267  A    between atoms: _676  and  _679
REMARK  268  A    between atoms: _679  and  _680
REMARK  269  A    between atoms: _685  and  _686
REMARK  270  A    between atoms: _688  and  _690
REMARK  271  A    between atoms: _690  and  _691
REMARK  272  A    between atoms: _690  and  _693
REMARK  273  A    between atoms: _693  and  _694
REMARK  274  A    between atoms: _694  and  _695
REMARK  275  A    between atoms: _698  and  _700
REMARK  276  A    between atoms: _700  and  _701
REMARK  277  A    between atoms: _700  and  _703
REMARK  278  A    between atoms: _703  and  _704
REMARK                            x       y       z     vdW  Elec       q    Type
REMARK                         _______ _______ _______ _____ _____    ______ ____
ROOT
ATOM      1  O   HOH     1      -1.075  64.661  79.445  0.00  0.00    +0.000 OA
ENDROOT
TORSDOF 0
REMARK  Name = ../refined-set-2016/1h23/1h23_pocket.pdb
REMARK  278 active torsions:
REMARK  status: ('A' for Active; 'I' for Inactive)
REMARK    1  A    between atoms: _1  and  _3
REMARK    2  A    between atoms: _3  and  _4
REMARK    3  A    between atoms: _3  and  _6
REMARK    4  A    between atoms: _6  and  _7
REMARK    5  A    between atoms: _7  and  _8
REMARK    6  A    between atoms: _13  and  _15
REMARK    7  A    between atoms: _15  and  _16
REMARK    8  A    between atoms: _15  and  _18
REMARK    9  A    between atoms: _18  and  _19
REMARK   10  A    between atoms: _24  and  _25
REMARK   11  A    between atoms: _27  and  _29
REMARK   12  A    between atoms: _29  and  _30
REMARK   13  A    between atoms: _29  and  _32
REMARK   14  A    between atoms: _35  and  _37
REMARK   15  A    between atoms: _37  and  _38
REMARK   16  A    between atoms: _37  and  _40
REMARK   17  A    between atoms: _40  and  _41
REMARK   18  A    between atoms: _44  and  _46
REMARK   19  A    between atoms: _46  and  _47
REMARK   20  A    between atoms: _46  and  _49
REMARK   21  A    between atoms: _49  and  _50
REMARK   22  A    between atoms: _50  and  _51
REMARK   23  A    between atoms: _54  and  _56
REMARK   24  A    between atoms: _56  and  _57
REMARK   25  A    between atoms: _56  and  _59
REMARK   26  A    between atoms: _59  and  _60
REMARK   27  A    between atoms: _60  and  _61
REMARK   28  A    between atoms: _66  and  _68
REMARK   29  A    between atoms: _68  and  _69
REMARK   30  A    between atoms: _68  and  _71
REMARK   31  A    between atoms: _71  and  _72
REMARK   32  A    between atoms: _78  and  _80
REMARK   33  A    between atoms: _80  and  _81
REMARK   34  A    between atoms: _83  and  _85
REMARK   35  A    between atoms: _85  and  _86
REMARK   36  A    between atoms: _85  and  _88
REMARK   37  A    between atoms: _88  and  _89
REMARK   38  A    between atoms: _91  and  _93
REMARK   39  A    between atoms: _93  and  _94
REMARK   40  A    between atoms: _93  and  _96
REMARK   41  A    between atoms: _96  and  _97
REMARK   42  A    between atoms: _97  and  _98
REMARK   43  A    between atoms: _100  and  _102
REMARK   44  A    between atoms: _102  and  _103
REMARK   45  A    between atoms: _102  and  _105
REMARK   46  A    between atoms: _105  and  _106
REMARK   47  A    between atoms: _116  and  _118
REMARK   48  A    between atoms: _118  and  _119
REMARK   49  A    between atoms: _118  and  _121
REMARK   50  A    between atoms: _121  and  _122
REMARK   51  A    between atoms: _128  and  _129
REMARK   52  A    between atoms: _134  and  _136
REMARK   53  A    between atoms: _136  and  _137
REMARK   54  A    between atoms: _136  and  _139
REMARK   55  A    between atoms: _139  and  _140
REMARK   56  A    between atoms: _150  and  _152
REMARK   57  A    between atoms: _152  and  _153
REMARK   58  A    between atoms: _152  and  _155
REMARK   59  A    between atoms: _155  and  _156
REMARK   60  A    between atoms: _159  and  _161
REMARK   61  A    between atoms: _161  and  _162
REMARK   62  A    between atoms: _161  and  _164
REMARK   63  A    between atoms: _164  and  _165
REMARK   64  A    between atoms: _170  and  _171
REMARK   65  A    between atoms: _173  and  _175
REMARK   66  A    between atoms: _175  and  _176
REMARK   67  A    between atoms: _178  and  _180
REMARK   68  A    between atoms: _180  and  _181
REMARK   69  A    between atoms: _183  and  _185
REMARK   70  A    between atoms: _185  and  _186
REMARK   71  A    between atoms: _188  and  _190
REMARK   72  A    between atoms: _190  and  _191
REMARK   73  A    between atoms: _190  and  _193
REMARK   74  A    between atoms: _193  and  _194
REMARK   75  A    between atoms: _200  and  _202
REMARK   76  A    between atoms: _202  and  _203
REMARK   77  A    between atoms: _202  and  _205
REMARK   78  A    between atoms: _205  and  _206
REMARK   79  A    between atoms: _211  and  _212
REMARK   80  A    between atoms: _214  and  _216
REMARK   81  A    between atoms: _216  and  _217
REMARK   82  A    between atoms: _216  and  _219
REMARK   83  A    between atoms: _219  and  _220
REMARK   84  A    between atoms: _222  and  _224
REMARK   85  A    between atoms: _224  and  _225
REMARK   86  A    between atoms: _227  and  _229
REMARK   87  A    between atoms: _229  and  _230
REMARK   88  A    between atoms: _229  and  _232
REMARK   89  A    between atoms: _232  and  _233
REMARK   90  A    between atoms: _235  and  _237
REMARK   91  A    between atoms: _237  and  _238
REMARK   92  A    between atoms: _237  and  _240
REMARK   93  A    between atoms: _240  and  _241
REMARK   94  A    between atoms: _243  and  _245
REMARK   95  A    between atoms: _245  and  _246
REMARK   96  A    between atoms: _245  and  _248
REMARK   97  A    between atoms: _248  and  _249
REMARK   98  A    between atoms: _252  and  _254
REMARK   99  A    between atoms: _254  and  _255
REMARK  100  A    between atoms: _254  and  _257
REMARK  101  A    between atoms: _257  and  _258
REMARK  102  A    between atoms: _261  and  _263
REMARK  103  A    between atoms: _263  and  _264
REMARK  104  A    between atoms: _263  and  _266
REMARK  105  A    between atoms: _269  and  _271
REMARK  106  A    between atoms: _271  and  _272
REMARK  107  A    between atoms: _271  and  _274
REMARK  108  A    between atoms: _274  and  _275
REMARK  109  A    between atoms: _280  and  _281
REMARK  110  A    between atoms: _283  and  _285
REMARK  111  A    between atoms: _285  and  _286
REMARK  112  A    between atoms: _285  and  _288
REMARK  113  A    between atoms: _288  and  _289
REMARK  114  A    between atoms: _294  and  _295
REMARK  115  A    between atoms: _297  and  _299
REMARK  116  A    between atoms: _299  and  _300
REMARK  117  A    between atoms: _299  and  _302
REMARK  118  A    between atoms: _305  and  _307
REMARK  119  A    between atoms: _307  and  _308
REMARK  120  A    between atoms: _307  and  _310
REMARK  121  A    between atoms: _310  and  _311
REMARK  122  A    between atoms: _311  and  _312
REMARK  123  A    between atoms: _315  and  _317
REMARK  124  A    between atoms: _317  and  _318
REMARK  125  A    between atoms: _317  and  _320
REMARK  126  A    between atoms: _320  and  _321
REMARK  127  A    between atoms: _323  and  _325
REMARK  128  A    between atoms: _325  and  _326
REMARK  129  A    between atoms: _329  and  _331
REMARK  130  A    between atoms: _331  and  _332
REMARK  131  A    between atoms: _334  and  _336
REMARK  132  A    between atoms: _336  and  _337
REMARK  133  A    between atoms: _336  and  _339
REMARK  134  A    between atoms: _339  and  _340
REMARK  135  A    between atoms: _340  and  _341
REMARK  136  A    between atoms: _346  and  _348
REMARK  137  A    between atoms: _348  and  _349
REMARK  138  A    between atoms: _348  and  _351
REMARK  139  A    between atoms: _351  and  _352
REMARK  140  A    between atoms: _354  and  _356
REMARK  141  A    between atoms: _356  and  _357
REMARK  142  A    between atoms: _356  and  _359
REMARK  143  A    between atoms: _359  and  _360
REMARK  144  A    between atoms: _360  and  _361
REMARK  145  A    between atoms: _364  and  _366
REMARK  146  A    between atoms: _366  and  _367
REMARK  147  A    between atoms: _366  and  _369
REMARK  148  A    between atoms: _369  and  _370
REMARK  149  A    between atoms: _380  and  _382
REMARK  150  A    between atoms: _382  and  _383
REMARK  151  A    between atoms: _382  and  _385
REMARK  152  A    between atoms: _385  and  _386
REMARK  153  A    between atoms: _391  and  _393
REMARK  154  A    between atoms: _393  and  _394
REMARK  155  A    between atoms: _393  and  _396
REMARK  156  A    between atoms: _396  and  _397
REMARK  157  A    between atoms: _400  and  _402
REMARK  158  A    between atoms: _402  and  _403
REMARK  159  A    between atoms: _402  and  _405
REMARK  160  A    between atoms: _405  and  _406
REMARK  161  A    between atoms: _412  and  _414
REMARK  162  A    between atoms: _414  and  _415
REMARK  163  A    between atoms: _414  and  _417
REMARK  164  A    between atoms: _417  and  _418
REMARK  165  A    between atoms: _421  and  _423
REMARK  166  A    between atoms: _423  and  _424
REMARK  167  A    between atoms: _423  and  _426
REMARK  168  A    between atoms: _426  and  _427
REMARK  169  A    between atoms: _429  and  _431
REMARK  170  A    between atoms: _431  and  _432
REMARK  171  A    between atoms: _431  and  _434
REMARK  172  A    between atoms: _434  and  _435
REMARK  173  A    between atoms: _438  and  _440
REMARK  174  A    between atoms: _440  and  _441
REMARK  175  A    between atoms: _440  and  _443
REMARK  176  A    between atoms: _443  and  _444
REMARK  177  A    between atoms: _450  and  _452
REMARK  178  A    between atoms: _452  and  _453
REMARK  179  A    between atoms: _452  and  _455
REMARK  180  A    between atoms: _455  and  _456
REMARK  181  A    between atoms: _456  and  _457
REMARK  182  A    between atoms: _457  and  _458
REMARK  183  A    between atoms: _467  and  _469
REMARK  184  A    between atoms: _469  and  _470
REMARK  185  A    between atoms: _469  and  _472
REMARK  186  A    between atoms: _472  and  _473
REMARK  187  A    between atoms: _479  and  _481
REMARK  188  A    between atoms: _481  and  _482
REMARK  189  A    between atoms: _481  and  _484
REMARK  190  A    between atoms: _484  and  _485
REMARK  191  A    between atoms: _487  and  _489
REMARK  192  A    between atoms: _489  and  _490
REMARK  193  A    between atoms: _489  and  _492
REMARK  194  A    between atoms: _492  and  _493
REMARK  195  A    between atoms: _498  and  _500
REMARK  196  A    between atoms: _500  and  _501
REMARK  197  A    between atoms: _500  and  _503
REMARK  198  A    between atoms: _503  and  _504
REMARK  199  A    between atoms: _504  and  _505
REMARK  200  A    between atoms: _508  and  _510
REMARK  201  A    between atoms: _510  and  _511
REMARK  202  A    between atoms: _513  and  _515
REMARK  203  A    between atoms: _515  and  _516
REMARK  204  A    between atoms: _515  and  _518
REMARK  205  A    between atoms: _518  and  _519
REMARK  206  A    between atoms: _521  and  _523
REMARK  207  A    between atoms: _523  and  _524
REMARK  208  A    between atoms: _523  and  _526
REMARK  209  A    between atoms: _526  and  _527
REMARK  210  A    between atoms: _533  and  _535
REMARK  211  A    between atoms: _535  and  _536
REMARK  212  A    between atoms: _535  and  _538
REMARK  213  A    between atoms: _538  and  _539
REMARK  214  A    between atoms: _545  and  _547
REMARK  215  A    between atoms: _547  and  _548
REMARK  216  A    between atoms: _547  and  _550
REMARK  217  A    between atoms: _550  and  _551
REMARK  218  A    between atoms: _554  and  _556
REMARK  219  A    between atoms: _556  and  _557
REMARK  220  A    between atoms: _556  and  _559
REMARK  221  A    between atoms: _559  and  _560
REMARK  222  A    between atoms: _563  and  _565
REMARK  223  A    between atoms: _565  and  _566
REMARK  224  A    between atoms: _565  and  _568
REMARK  225  A    between atoms: _568  and  _569
REMARK  226  A    between atoms: _574  and  _575
REMARK  227  A    between atoms: _577  and  _579
REMARK  228  A    between atoms: _579  and  _580
REMARK  229  A    between atoms: _582  and  _584
REMARK  230  A    between atoms: _584  and  _585
REMARK  231  A    between atoms: _588  and  _590
REMARK  232  A    between atoms: _590  and  _591
REMARK  233  A    between atoms: _590  and  _593
REMARK  234  A    between atoms: _593  and  _594
REMARK  235  A    between atoms: _597  and  _599
REMARK  236  A    between atoms: _599  and  _600
REMARK  237  A    between atoms: _599  and  _602
REMARK  238  A    between atoms: _602  and  _603
REMARK  239  A    between atoms: _605  and  _607
REMARK  240  A    between atoms: _607  and  _608
REMARK  241  A    between atoms: _607  and  _610
REMARK  242  A    between atoms: _613  and  _615
REMARK  243  A    between atoms: _615  and  _616
REMARK  244  A    between atoms: _615  and  _618
REMARK  245  A    between atoms: _618  and  _619
REMARK  246  A    between atoms: _624  and  _626
REMARK  247  A    between atoms: _626  and  _627
REMARK  248  A    between atoms: _626  and  _629
REMARK  249  A    between atoms: _629  and  _630
REMARK  250  A    between atoms: _640  and  _642
REMARK  251  A    between atoms: _642  and  _643
REMARK  252  A    between atoms: _642  and  _645
REMARK  253  A    between atoms: _645  and  _646
REMARK  254  A    between atoms: _646  and  _647
REMARK  255  A    between atoms: _649  and  _651
REMARK  256  A    between atoms: _651  and  _652
REMARK  257  A    between atoms: _651  and  _654
REMARK  258  A    between atoms: _654  and  _655
REMARK  259  A    between atoms: _658  and  _660
REMARK  260  A    between atoms: _660  and  _661
REMARK  261  A    between atoms: _660  and  _663
REMARK  262  A    between atoms: _663  and  _664
REMARK  263  A    between atoms: _669  and  _671
REMARK  264  A    between atoms: _671  and  _672
REMARK  265  A    between atoms: _674  and  _676
REMARK  266  A    between atoms: _676  and  _677
REMARK  267  A    between atoms: _676  and  _679
REMARK  268  A    between atoms: _679  and  _680
REMARK  269  A    between atoms: _685  and  _686
REMARK  270  A    between atoms: _688  and  _690
REMARK  271  A    between atoms: _690  and  _691
REMARK  272  A    between atoms: _690  and  _693
REMARK  273  A    between atoms: _693  and  _694
REMARK  274  A    between atoms: _694  and  _695
REMARK  275  A    between atoms: _698  and  _700
REMARK  276  A    between atoms: _700  and  _701
REMARK  277  A    between atoms: _700  and  _703
REMARK  278  A    between atoms: _703  and  _704
REMARK                            x       y       z     vdW  Elec       q    Type
REMARK                         _______ _______ _______ _____ _____    ______ ____
ROOT
ATOM      1  O   HOH     1      -2.295  66.737  77.224  0.00  0.00    +0.000 OA
ENDROOT
TORSDOF 0
REMARK  Name = ../refined-set-2016/1h23/1h23_pocket.pdb
REMARK  278 active torsions:
REMARK  status: ('A' for Active; 'I' for Inactive)
REMARK    1  A    between atoms: _1  and  _3
REMARK    2  A    between atoms: _3  and  _4
REMARK    3  A    between atoms: _3  and  _6
REMARK    4  A    between atoms: _6  and  _7
REMARK    5  A    between atoms: _7  and  _8
REMARK    6  A    between atoms: _13  and  _15
REMARK    7  A    between atoms: _15  and  _16
REMARK    8  A    between atoms: _15  and  _18
REMARK    9  A    between atoms: _18  and  _19
REMARK   10  A    between atoms: _24  and  _25
REMARK   11  A    between atoms: _27  and  _29
REMARK   12  A    between atoms: _29  and  _30
REMARK   13  A    between atoms: _29  and  _32
REMARK   14  A    between atoms: _35  and  _37
REMARK   15  A    between atoms: _37  and  _38
REMARK   16  A    between atoms: _37  and  _40
REMARK   17  A    between atoms: _40  and  _41
REMARK   18  A    between atoms: _44  and  _46
REMARK   19  A    between atoms: _46  and  _47
REMARK   20  A    between atoms: _46  and  _49
REMARK   21  A    between atoms: _49  and  _50
REMARK   22  A    between atoms: _50  and  _51
REMARK   23  A    between atoms: _54  and  _56
REMARK   24  A    between atoms: _56  and  _57
REMARK   25  A    between atoms: _56  and  _59
REMARK   26  A    between atoms: _59  and  _60
REMARK   27  A    between atoms: _60  and  _61
REMARK   28  A    between atoms: _66  and  _68
REMARK   29  A    between atoms: _68  and  _69
REMARK   30  A    between atoms: _68  and  _71
REMARK   31  A    between atoms: _71  and  _72
REMARK   32  A    between atoms: _78  and  _80
REMARK   33  A    between atoms: _80  and  _81
REMARK   34  A    between atoms: _83  and  _85
REMARK   35  A    between atoms: _85  and  _86
REMARK   36  A    between atoms: _85  and  _88
REMARK   37  A    between atoms: _88  and  _89
REMARK   38  A    between atoms: _91  and  _93
REMARK   39  A    between atoms: _93  and  _94
REMARK   40  A    between atoms: _93  and  _96
REMARK   41  A    between atoms: _96  and  _97
REMARK   42  A    between atoms: _97  and  _98
REMARK   43  A    between atoms: _100  and  _102
REMARK   44  A    between atoms: _102  and  _103
REMARK   45  A    between atoms: _102  and  _105
REMARK   46  A    between atoms: _105  and  _106
REMARK   47  A    between atoms: _116  and  _118
REMARK   48  A    between atoms: _118  and  _119
REMARK   49  A    between atoms: _118  and  _121
REMARK   50  A    between atoms: _121  and  _122
REMARK   51  A    between atoms: _128  and  _129
REMARK   52  A    between atoms: _134  and  _136
REMARK   53  A    between atoms: _136  and  _137
REMARK   54  A    between atoms: _136  and  _139
REMARK   55  A    between atoms: _139  and  _140
REMARK   56  A    between atoms: _150  and  _152
REMARK   57  A    between atoms: _152  and  _153
REMARK   58  A    between atoms: _152  and  _155
REMARK   59  A    between atoms: _155  and  _156
REMARK   60  A    between atoms: _159  and  _161
REMARK   61  A    between atoms: _161  and  _162
REMARK   62  A    between atoms: _161  and  _164
REMARK   63  A    between atoms: _164  and  _165
REMARK   64  A    between atoms: _170  and  _171
REMARK   65  A    between atoms: _173  and  _175
REMARK   66  A    between atoms: _175  and  _176
REMARK   67  A    between atoms: _178  and  _180
REMARK   68  A    between atoms: _180  and  _181
REMARK   69  A    between atoms: _183  and  _185
REMARK   70  A    between atoms: _185  and  _186
REMARK   71  A    between atoms: _188  and  _190
REMARK   72  A    between atoms: _190  and  _191
REMARK   73  A    between atoms: _190  and  _193
REMARK   74  A    between atoms: _193  and  _194
REMARK   75  A    between atoms: _200  and  _202
REMARK   76  A    between atoms: _202  and  _203
REMARK   77  A    between atoms: _202  and  _205
REMARK   78  A    between atoms: _205  and  _206
REMARK   79  A    between atoms: _211  and  _212
REMARK   80  A    between atoms: _214  and  _216
REMARK   81  A    between atoms: _216  and  _217
REMARK   82  A    between atoms: _216  and  _219
REMARK   83  A    between atoms: _219  and  _220
REMARK   84  A    between atoms: _222  and  _224
REMARK   85  A    between atoms: _224  and  _225
REMARK   86  A    between atoms: _227  and  _229
REMARK   87  A    between atoms: _229  and  _230
REMARK   88  A    between atoms: _229  and  _232
REMARK   89  A    between atoms: _232  and  _233
REMARK   90  A    between atoms: _235  and  _237
REMARK   91  A    between atoms: _237  and  _238
REMARK   92  A    between atoms: _237  and  _240
REMARK   93  A    between atoms: _240  and  _241
REMARK   94  A    between atoms: _243  and  _245
REMARK   95  A    between atoms: _245  and  _246
REMARK   96  A    between atoms: _245  and  _248
REMARK   97  A    between atoms: _248  and  _249
REMARK   98  A    between atoms: _252  and  _254
REMARK   99  A    between atoms: _254  and  _255
REMARK  100  A    between atoms: _254  and  _257
REMARK  101  A    between atoms: _257  and  _258
REMARK  102  A    between atoms: _261  and  _263
REMARK  103  A    between atoms: _263  and  _264
REMARK  104  A    between atoms: _263  and  _266
REMARK  105  A    between atoms: _269  and  _271
REMARK  106  A    between atoms: _271  and  _272
REMARK  107  A    between atoms: _271  and  _274
REMARK  108  A    between atoms: _274  and  _275
REMARK  109  A    between atoms: _280  and  _281
REMARK  110  A    between atoms: _283  and  _285
REMARK  111  A    between atoms: _285  and  _286
REMARK  112  A    between atoms: _285  and  _288
REMARK  113  A    between atoms: _288  and  _289
REMARK  114  A    between atoms: _294  and  _295
REMARK  115  A    between atoms: _297  and  _299
REMARK  116  A    between atoms: _299  and  _300
REMARK  117  A    between atoms: _299  and  _302
REMARK  118  A    between atoms: _305  and  _307
REMARK  119  A    between atoms: _307  and  _308
REMARK  120  A    between atoms: _307  and  _310
REMARK  121  A    between atoms: _310  and  _311
REMARK  122  A    between atoms: _311  and  _312
REMARK  123  A    between atoms: _315  and  _317
REMARK  124  A    between atoms: _317  and  _318
REMARK  125  A    between atoms: _317  and  _320
REMARK  126  A    between atoms: _320  and  _321
REMARK  127  A    between atoms: _323  and  _325
REMARK  128  A    between atoms: _325  and  _326
REMARK  129  A    between atoms: _329  and  _331
REMARK  130  A    between atoms: _331  and  _332
REMARK  131  A    between atoms: _334  and  _336
REMARK  132  A    between atoms: _336  and  _337
REMARK  133  A    between atoms: _336  and  _339
REMARK  134  A    between atoms: _339  and  _340
REMARK  135  A    between atoms: _340  and  _341
REMARK  136  A    between atoms: _346  and  _348
REMARK  137  A    between atoms: _348  and  _349
REMARK  138  A    between atoms: _348  and  _351
REMARK  139  A    between atoms: _351  and  _352
REMARK  140  A    between atoms: _354  and  _356
REMARK  141  A    between atoms: _356  and  _357
REMARK  142  A    between atoms: _356  and  _359
REMARK  143  A    between atoms: _359  and  _360
REMARK  144  A    between atoms: _360  and  _361
REMARK  145  A    between atoms: _364  and  _366
REMARK  146  A    between atoms: _366  and  _367
REMARK  147  A    between atoms: _366  and  _369
REMARK  148  A    between atoms: _369  and  _370
REMARK  149  A    between atoms: _380  and  _382
REMARK  150  A    between atoms: _382  and  _383
REMARK  151  A    between atoms: _382  and  _385
REMARK  152  A    between atoms: _385  and  _386
REMARK  153  A    between atoms: _391  and  _393
REMARK  154  A    between atoms: _393  and  _394
REMARK  155  A    between atoms: _393  and  _396
REMARK  156  A    between atoms: _396  and  _397
REMARK  157  A    between atoms: _400  and  _402
REMARK  158  A    between atoms: _402  and  _403
REMARK  159  A    between atoms: _402  and  _405
REMARK  160  A    between atoms: _405  and  _406
REMARK  161  A    between atoms: _412  and  _414
REMARK  162  A    between atoms: _414  and  _415
REMARK  163  A    between atoms: _414  and  _417
REMARK  164  A    between atoms: _417  and  _418
REMARK  165  A    between atoms: _421  and  _423
REMARK  166  A    between atoms: _423  and  _424
REMARK  167  A    between atoms: _423  and  _426
REMARK  168  A    between atoms: _426  and  _427
REMARK  169  A    between atoms: _429  and  _431
REMARK  170  A    between atoms: _431  and  _432
REMARK  171  A    between atoms: _431  and  _434
REMARK  172  A    between atoms: _434  and  _435
REMARK  173  A    between atoms: _438  and  _440
REMARK  174  A    between atoms: _440  and  _441
REMARK  175  A    between atoms: _440  and  _443
REMARK  176  A    between atoms: _443  and  _444
REMARK  177  A    between atoms: _450  and  _452
REMARK  178  A    between atoms: _452  and  _453
REMARK  179  A    between atoms: _452  and  _455
REMARK  180  A    between atoms: _455  and  _456
REMARK  181  A    between atoms: _456  and  _457
REMARK  182  A    between atoms: _457  and  _458
REMARK  183  A    between atoms: _467  and  _469
REMARK  184  A    between atoms: _469  and  _470
REMARK  185  A    between atoms: _469  and  _472
REMARK  186  A    between atoms: _472  and  _473
REMARK  187  A    between atoms: _479  and  _481
REMARK  188  A    between atoms: _481  and  _482
REMARK  189  A    between atoms: _481  and  _484
REMARK  190  A    between atoms: _484  and  _485
REMARK  191  A    between atoms: _487  and  _489
REMARK  192  A    between atoms: _489  and  _490
REMARK  193  A    between atoms: _489  and  _492
REMARK  194  A    between atoms: _492  and  _493
REMARK  195  A    between atoms: _498  and  _500
REMARK  196  A    between atoms: _500  and  _501
REMARK  197  A    between atoms: _500  and  _503
REMARK  198  A    between atoms: _503  and  _504
REMARK  199  A    between atoms: _504  and  _505
REMARK  200  A    between atoms: _508  and  _510
REMARK  201  A    between atoms: _510  and  _511
REMARK  202  A    between atoms: _513  and  _515
REMARK  203  A    between atoms: _515  and  _516
REMARK  204  A    between atoms: _515  and  _518
REMARK  205  A    between atoms: _518  and  _519
REMARK  206  A    between atoms: _521  and  _523
REMARK  207  A    between atoms: _523  and  _524
REMARK  208  A    between atoms: _523  and  _526
REMARK  209  A    between atoms: _526  and  _527
REMARK  210  A    between atoms: _533  and  _535
REMARK  211  A    between atoms: _535  and  _536
REMARK  212  A    between atoms: _535  and  _538
REMARK  213  A    between atoms: _538  and  _539
REMARK  214  A    between atoms: _545  and  _547
REMARK  215  A    between atoms: _547  and  _548
REMARK  216  A    between atoms: _547  and  _550
REMARK  217  A    between atoms: _550  and  _551
REMARK  218  A    between atoms: _554  and  _556
REMARK  219  A    between atoms: _556  and  _557
REMARK  220  A    between atoms: _556  and  _559
REMARK  221  A    between atoms: _559  and  _560
REMARK  222  A    between atoms: _563  and  _565
REMARK  223  A    between atoms: _565  and  _566
REMARK  224  A    between atoms: _565  and  _568
REMARK  225  A    between atoms: _568  and  _569
REMARK  226  A    between atoms: _574  and  _575
REMARK  227  A    between atoms: _577  and  _579
REMARK  228  A    between atoms: _579  and  _580
REMARK  229  A    between atoms: _582  and  _584
REMARK  230  A    between atoms: _584  and  _585
REMARK  231  A    between atoms: _588  and  _590
REMARK  232  A    between atoms: _590  and  _591
REMARK  233  A    between atoms: _590  and  _593
REMARK  234  A    between atoms: _593  and  _594
REMARK  235  A    between atoms: _597  and  _599
REMARK  236  A    between atoms: _599  and  _600
REMARK  237  A    between atoms: _599  and  _602
REMARK  238  A    between atoms: _602  and  _603
REMARK  239  A    between atoms: _605  and  _607
REMARK  240  A    between atoms: _607  and  _608
REMARK  241  A    between atoms: _607  and  _610
REMARK  242  A    between atoms: _613  and  _615
REMARK  243  A    between atoms: _615  and  _616
REMARK  244  A    between atoms: _615  and  _618
REMARK  245  A    between atoms: _618  and  _619
REMARK  246  A    between atoms: _624  and  _626
REMARK  247  A    between atoms: _626  and  _627
REMARK  248  A    between atoms: _626  and  _629
REMARK  249  A    between atoms: _629  and  _630
REMARK  250  A    between atoms: _640  and  _642
REMARK  251  A    between atoms: _642  and  _643
REMARK  252  A    between atoms: _642  and  _645
REMARK  253  A    between atoms: _645  and  _646
REMARK  254  A    between atoms: _646  and  _647
REMARK  255  A    between atoms: _649  and  _651
REMARK  256  A    between atoms: _651  and  _652
REMARK  257  A    between atoms: _651  and  _654
REMARK  258  A    between atoms: _654  and  _655
REMARK  259  A    between atoms: _658  and  _660
REMARK  260  A    between atoms: _660  and  _661
REMARK  261  A    between atoms: _660  and  _663
REMARK  262  A    between atoms: _663  and  _664
REMARK  263  A    between atoms: _669  and  _671
REMARK  264  A    between atoms: _671  and  _672
REMARK  265  A    between atoms: _674  and  _676
REMARK  266  A    between atoms: _676  and  _677
REMARK  267  A    between atoms: _676  and  _679
REMARK  268  A    between atoms: _679  and  _680
REMARK  269  A    between atoms: _685  and  _686
REMARK  270  A    between atoms: _688  and  _690
REMARK  271  A    between atoms: _690  and  _691
REMARK  272  A    between atoms: _690  and  _693
REMARK  273  A    between atoms: _693  and  _694
REMARK  274  A    between atoms: _694  and  _695
REMARK  275  A    between atoms: _698  and  _700
REMARK  276  A    between atoms: _700  and  _701
REMARK  277  A    between atoms: _700  and  _703
REMARK  278  A    between atoms: _703  and  _704
REMARK                            x       y       z     vdW  Elec       q    Type
REMARK                         _______ _______ _______ _____ _____    ______ ____
ROOT
ATOM      1  O   HOH     1       0.793  70.314  68.952  0.00  0.00    +0.000 OA
ENDROOT
TORSDOF 0
REMARK  Name = ../refined-set-2016/1h23/1h23_pocket.pdb
REMARK  278 active torsions:
REMARK  status: ('A' for Active; 'I' for Inactive)
REMARK    1  A    between atoms: _1  and  _3
REMARK    2  A    between atoms: _3  and  _4
REMARK    3  A    between atoms: _3  and  _6
REMARK    4  A    between atoms: _6  and  _7
REMARK    5  A    between atoms: _7  and  _8
REMARK    6  A    between atoms: _13  and  _15
REMARK    7  A    between atoms: _15  and  _16
REMARK    8  A    between atoms: _15  and  _18
REMARK    9  A    between atoms: _18  and  _19
REMARK   10  A    between atoms: _24  and  _25
REMARK   11  A    between atoms: _27  and  _29
REMARK   12  A    between atoms: _29  and  _30
REMARK   13  A    between atoms: _29  and  _32
REMARK   14  A    between atoms: _35  and  _37
REMARK   15  A    between atoms: _37  and  _38
REMARK   16  A    between atoms: _37  and  _40
REMARK   17  A    between atoms: _40  and  _41
REMARK   18  A    between atoms: _44  and  _46
REMARK   19  A    between atoms: _46  and  _47
REMARK   20  A    between atoms: _46  and  _49
REMARK   21  A    between atoms: _49  and  _50
REMARK   22  A    between atoms: _50  and  _51
REMARK   23  A    between atoms: _54  and  _56
REMARK   24  A    between atoms: _56  and  _57
REMARK   25  A    between atoms: _56  and  _59
REMARK   26  A    between atoms: _59  and  _60
REMARK   27  A    between atoms: _60  and  _61
REMARK   28  A    between atoms: _66  and  _68
REMARK   29  A    between atoms: _68  and  _69
REMARK   30  A    between atoms: _68  and  _71
REMARK   31  A    between atoms: _71  and  _72
REMARK   32  A    between atoms: _78  and  _80
REMARK   33  A    between atoms: _80  and  _81
REMARK   34  A    between atoms: _83  and  _85
REMARK   35  A    between atoms: _85  and  _86
REMARK   36  A    between atoms: _85  and  _88
REMARK   37  A    between atoms: _88  and  _89
REMARK   38  A    between atoms: _91  and  _93
REMARK   39  A    between atoms: _93  and  _94
REMARK   40  A    between atoms: _93  and  _96
REMARK   41  A    between atoms: _96  and  _97
REMARK   42  A    between atoms: _97  and  _98
REMARK   43  A    between atoms: _100  and  _102
REMARK   44  A    between atoms: _102  and  _103
REMARK   45  A    between atoms: _102  and  _105
REMARK   46  A    between atoms: _105  and  _106
REMARK   47  A    between atoms: _116  and  _118
REMARK   48  A    between atoms: _118  and  _119
REMARK   49  A    between atoms: _118  and  _121
REMARK   50  A    between atoms: _121  and  _122
REMARK   51  A    between atoms: _128  and  _129
REMARK   52  A    between atoms: _134  and  _136
REMARK   53  A    between atoms: _136  and  _137
REMARK   54  A    between atoms: _136  and  _139
REMARK   55  A    between atoms: _139  and  _140
REMARK   56  A    between atoms: _150  and  _152
REMARK   57  A    between atoms: _152  and  _153
REMARK   58  A    between atoms: _152  and  _155
REMARK   59  A    between atoms: _155  and  _156
REMARK   60  A    between atoms: _159  and  _161
REMARK   61  A    between atoms: _161  and  _162
REMARK   62  A    between atoms: _161  and  _164
REMARK   63  A    between atoms: _164  and  _165
REMARK   64  A    between atoms: _170  and  _171
REMARK   65  A    between atoms: _173  and  _175
REMARK   66  A    between atoms: _175  and  _176
REMARK   67  A    between atoms: _178  and  _180
REMARK   68  A    between atoms: _180  and  _181
REMARK   69  A    between atoms: _183  and  _185
REMARK   70  A    between atoms: _185  and  _186
REMARK   71  A    between atoms: _188  and  _190
REMARK   72  A    between atoms: _190  and  _191
REMARK   73  A    between atoms: _190  and  _193
REMARK   74  A    between atoms: _193  and  _194
REMARK   75  A    between atoms: _200  and  _202
REMARK   76  A    between atoms: _202  and  _203
REMARK   77  A    between atoms: _202  and  _205
REMARK   78  A    between atoms: _205  and  _206
REMARK   79  A    between atoms: _211  and  _212
REMARK   80  A    between atoms: _214  and  _216
REMARK   81  A    between atoms: _216  and  _217
REMARK   82  A    between atoms: _216  and  _219
REMARK   83  A    between atoms: _219  and  _220
REMARK   84  A    between atoms: _222  and  _224
REMARK   85  A    between atoms: _224  and  _225
REMARK   86  A    between atoms: _227  and  _229
REMARK   87  A    between atoms: _229  and  _230
REMARK   88  A    between atoms: _229  and  _232
REMARK   89  A    between atoms: _232  and  _233
REMARK   90  A    between atoms: _235  and  _237
REMARK   91  A    between atoms: _237  and  _238
REMARK   92  A    between atoms: _237  and  _240
REMARK   93  A    between atoms: _240  and  _241
REMARK   94  A    between atoms: _243  and  _245
REMARK   95  A    between atoms: _245  and  _246
REMARK   96  A    between atoms: _245  and  _248
REMARK   97  A    between atoms: _248  and  _249
REMARK   98  A    between atoms: _252  and  _254
REMARK   99  A    between atoms: _254  and  _255
REMARK  100  A    between atoms: _254  and  _257
REMARK  101  A    between atoms: _257  and  _258
REMARK  102  A    between atoms: _261  and  _263
REMARK  103  A    between atoms: _263  and  _264
REMARK  104  A    between atoms: _263  and  _266
REMARK  105  A    between atoms: _269  and  _271
REMARK  106  A    between atoms: _271  and  _272
REMARK  107  A    between atoms: _271  and  _274
REMARK  108  A    between atoms: _274  and  _275
REMARK  109  A    between atoms: _280  and  _281
REMARK  110  A    between atoms: _283  and  _285
REMARK  111  A    between atoms: _285  and  _286
REMARK  112  A    between atoms: _285  and  _288
REMARK  113  A    between atoms: _288  and  _289
REMARK  114  A    between atoms: _294  and  _295
REMARK  115  A    between atoms: _297  and  _299
REMARK  116  A    between atoms: _299  and  _300
REMARK  117  A    between atoms: _299  and  _302
REMARK  118  A    between atoms: _305  and  _307
REMARK  119  A    between atoms: _307  and  _308
REMARK  120  A    between atoms: _307  and  _310
REMARK  121  A    between atoms: _310  and  _311
REMARK  122  A    between atoms: _311  and  _312
REMARK  123  A    between atoms: _315  and  _317
REMARK  124  A    between atoms: _317  and  _318
REMARK  125  A    between atoms: _317  and  _320
REMARK  126  A    between atoms: _320  and  _321
REMARK  127  A    between atoms: _323  and  _325
REMARK  128  A    between atoms: _325  and  _326
REMARK  129  A    between atoms: _329  and  _331
REMARK  130  A    between atoms: _331  and  _332
REMARK  131  A    between atoms: _334  and  _336
REMARK  132  A    between atoms: _336  and  _337
REMARK  133  A    between atoms: _336  and  _339
REMARK  134  A    between atoms: _339  and  _340
REMARK  135  A    between atoms: _340  and  _341
REMARK  136  A    between atoms: _346  and  _348
REMARK  137  A    between atoms: _348  and  _349
REMARK  138  A    between atoms: _348  and  _351
REMARK  139  A    between atoms: _351  and  _352
REMARK  140  A    between atoms: _354  and  _356
REMARK  141  A    between atoms: _356  and  _357
REMARK  142  A    between atoms: _356  and  _359
REMARK  143  A    between atoms: _359  and  _360
REMARK  144  A    between atoms: _360  and  _361
REMARK  145  A    between atoms: _364  and  _366
REMARK  146  A    between atoms: _366  and  _367
REMARK  147  A    between atoms: _366  and  _369
REMARK  148  A    between atoms: _369  and  _370
REMARK  149  A    between atoms: _380  and  _382
REMARK  150  A    between atoms: _382  and  _383
REMARK  151  A    between atoms: _382  and  _385
REMARK  152  A    between atoms: _385  and  _386
REMARK  153  A    between atoms: _391  and  _393
REMARK  154  A    between atoms: _393  and  _394
REMARK  155  A    between atoms: _393  and  _396
REMARK  156  A    between atoms: _396  and  _397
REMARK  157  A    between atoms: _400  and  _402
REMARK  158  A    between atoms: _402  and  _403
REMARK  159  A    between atoms: _402  and  _405
REMARK  160  A    between atoms: _405  and  _406
REMARK  161  A    between atoms: _412  and  _414
REMARK  162  A    between atoms: _414  and  _415
REMARK  163  A    between atoms: _414  and  _417
REMARK  164  A    between atoms: _417  and  _418
REMARK  165  A    between atoms: _421  and  _423
REMARK  166  A    between atoms: _423  and  _424
REMARK  167  A    between atoms: _423  and  _426
REMARK  168  A    between atoms: _426  and  _427
REMARK  169  A    between atoms: _429  and  _431
REMARK  170  A    between atoms: _431  and  _432
REMARK  171  A    between atoms: _431  and  _434
REMARK  172  A    between atoms: _434  and  _435
REMARK  173  A    between atoms: _438  and  _440
REMARK  174  A    between atoms: _440  and  _441
REMARK  175  A    between atoms: _440  and  _443
REMARK  176  A    between atoms: _443  and  _444
REMARK  177  A    between atoms: _450  and  _452
REMARK  178  A    between atoms: _452  and  _453
REMARK  179  A    between atoms: _452  and  _455
REMARK  180  A    between atoms: _455  and  _456
REMARK  181  A    between atoms: _456  and  _457
REMARK  182  A    between atoms: _457  and  _458
REMARK  183  A    between atoms: _467  and  _469
REMARK  184  A    between atoms: _469  and  _470
REMARK  185  A    between atoms: _469  and  _472
REMARK  186  A    between atoms: _472  and  _473
REMARK  187  A    between atoms: _479  and  _481
REMARK  188  A    between atoms: _481  and  _482
REMARK  189  A    between atoms: _481  and  _484
REMARK  190  A    between atoms: _484  and  _485
REMARK  191  A    between atoms: _487  and  _489
REMARK  192  A    between atoms: _489  and  _490
REMARK  193  A    between atoms: _489  and  _492
REMARK  194  A    between atoms: _492  and  _493
REMARK  195  A    between atoms: _498  and  _500
REMARK  196  A    between atoms: _500  and  _501
REMARK  197  A    between atoms: _500  and  _503
REMARK  198  A    between atoms: _503  and  _504
REMARK  199  A    between atoms: _504  and  _505
REMARK  200  A    between atoms: _508  and  _510
REMARK  201  A    between atoms: _510  and  _511
REMARK  202  A    between atoms: _513  and  _515
REMARK  203  A    between atoms: _515  and  _516
REMARK  204  A    between atoms: _515  and  _518
REMARK  205  A    between atoms: _518  and  _519
REMARK  206  A    between atoms: _521  and  _523
REMARK  207  A    between atoms: _523  and  _524
REMARK  208  A    between atoms: _523  and  _526
REMARK  209  A    between atoms: _526  and  _527
REMARK  210  A    between atoms: _533  and  _535
REMARK  211  A    between atoms: _535  and  _536
REMARK  212  A    between atoms: _535  and  _538
REMARK  213  A    between atoms: _538  and  _539
REMARK  214  A    between atoms: _545  and  _547
REMARK  215  A    between atoms: _547  and  _548
REMARK  216  A    between atoms: _547  and  _550
REMARK  217  A    between atoms: _550  and  _551
REMARK  218  A    between atoms: _554  and  _556
REMARK  219  A    between atoms: _556  and  _557
REMARK  220  A    between atoms: _556  and  _559
REMARK  221  A    between atoms: _559  and  _560
REMARK  222  A    between atoms: _563  and  _565
REMARK  223  A    between atoms: _565  and  _566
REMARK  224  A    between atoms: _565  and  _568
REMARK  225  A    between atoms: _568  and  _569
REMARK  226  A    between atoms: _574  and  _575
REMARK  227  A    between atoms: _577  and  _579
REMARK  228  A    between atoms: _579  and  _580
REMARK  229  A    between atoms: _582  and  _584
REMARK  230  A    between atoms: _584  and  _585
REMARK  231  A    between atoms: _588  and  _590
REMARK  232  A    between atoms: _590  and  _591
REMARK  233  A    between atoms: _590  and  _593
REMARK  234  A    between atoms: _593  and  _594
REMARK  235  A    between atoms: _597  and  _599
REMARK  236  A    between atoms: _599  and  _600
REMARK  237  A    between atoms: _599  and  _602
REMARK  238  A    between atoms: _602  and  _603
REMARK  239  A    between atoms: _605  and  _607
REMARK  240  A    between atoms: _607  and  _608
REMARK  241  A    between atoms: _607  and  _610
REMARK  242  A    between atoms: _613  and  _615
REMARK  243  A    between atoms: _615  and  _616
REMARK  244  A    between atoms: _615  and  _618
REMARK  245  A    between atoms: _618  and  _619
REMARK  246  A    between atoms: _624  and  _626
REMARK  247  A    between atoms: _626  and  _627
REMARK  248  A    between atoms: _626  and  _629
REMARK  249  A    between atoms: _629  and  _630
REMARK  250  A    between atoms: _640  and  _642
REMARK  251  A    between atoms: _642  and  _643
REMARK  252  A    between atoms: _642  and  _645
REMARK  253  A    between atoms: _645  and  _646
REMARK  254  A    between atoms: _646  and  _647
REMARK  255  A    between atoms: _649  and  _651
REMARK  256  A    between atoms: _651  and  _652
REMARK  257  A    between atoms: _651  and  _654
REMARK  258  A    between atoms: _654  and  _655
REMARK  259  A    between atoms: _658  and  _660
REMARK  260  A    between atoms: _660  and  _661
REMARK  261  A    between atoms: _660  and  _663
REMARK  262  A    between atoms: _663  and  _664
REMARK  263  A    between atoms: _669  and  _671
REMARK  264  A    between atoms: _671  and  _672
REMARK  265  A    between atoms: _674  and  _676
REMARK  266  A    between atoms: _676  and  _677
REMARK  267  A    between atoms: _676  and  _679
REMARK  268  A    between atoms: _679  and  _680
REMARK  269  A    between atoms: _685  and  _686
REMARK  270  A    between atoms: _688  and  _690
REMARK  271  A    between atoms: _690  and  _691
REMARK  272  A    between atoms: _690  and  _693
REMARK  273  A    between atoms: _693  and  _694
REMARK  274  A    between atoms: _694  and  _695
REMARK  275  A    between atoms: _698  and  _700
REMARK  276  A    between atoms: _700  and  _701
REMARK  277  A    between atoms: _700  and  _703
REMARK  278  A    between atoms: _703  and  _704
REMARK                            x       y       z     vdW  Elec       q    Type
REMARK                         _______ _______ _______ _____ _____    ______ ____
ROOT
ATOM      1  O   HOH     1      -1.545  68.453  65.381  0.00  0.00    +0.000 OA
ENDROOT
TORSDOF 0
REMARK  Name = ../refined-set-2016/1h23/1h23_pocket.pdb
REMARK  278 active torsions:
REMARK  status: ('A' for Active; 'I' for Inactive)
REMARK    1  A    between atoms: _1  and  _3
REMARK    2  A    between atoms: _3  and  _4
REMARK    3  A    between atoms: _3  and  _6
REMARK    4  A    between atoms: _6  and  _7
REMARK    5  A    between atoms: _7  and  _8
REMARK    6  A    between atoms: _13  and  _15
REMARK    7  A    between atoms: _15  and  _16
REMARK    8  A    between atoms: _15  and  _18
REMARK    9  A    between atoms: _18  and  _19
REMARK   10  A    between atoms: _24  and  _25
REMARK   11  A    between atoms: _27  and  _29
REMARK   12  A    between atoms: _29  and  _30
REMARK   13  A    between atoms: _29  and  _32
REMARK   14  A    between atoms: _35  and  _37
REMARK   15  A    between atoms: _37  and  _38
REMARK   16  A    between atoms: _37  and  _40
REMARK   17  A    between atoms: _40  and  _41
REMARK   18  A    between atoms: _44  and  _46
REMARK   19  A    between atoms: _46  and  _47
REMARK   20  A    between atoms: _46  and  _49
REMARK   21  A    between atoms: _49  and  _50
REMARK   22  A    between atoms: _50  and  _51
REMARK   23  A    between atoms: _54  and  _56
REMARK   24  A    between atoms: _56  and  _57
REMARK   25  A    between atoms: _56  and  _59
REMARK   26  A    between atoms: _59  and  _60
REMARK   27  A    between atoms: _60  and  _61
REMARK   28  A    between atoms: _66  and  _68
REMARK   29  A    between atoms: _68  and  _69
REMARK   30  A    between atoms: _68  and  _71
REMARK   31  A    between atoms: _71  and  _72
REMARK   32  A    between atoms: _78  and  _80
REMARK   33  A    between atoms: _80  and  _81
REMARK   34  A    between atoms: _83  and  _85
REMARK   35  A    between atoms: _85  and  _86
REMARK   36  A    between atoms: _85  and  _88
REMARK   37  A    between atoms: _88  and  _89
REMARK   38  A    between atoms: _91  and  _93
REMARK   39  A    between atoms: _93  and  _94
REMARK   40  A    between atoms: _93  and  _96
REMARK   41  A    between atoms: _96  and  _97
REMARK   42  A    between atoms: _97  and  _98
REMARK   43  A    between atoms: _100  and  _102
REMARK   44  A    between atoms: _102  and  _103
REMARK   45  A    between atoms: _102  and  _105
REMARK   46  A    between atoms: _105  and  _106
REMARK   47  A    between atoms: _116  and  _118
REMARK   48  A    between atoms: _118  and  _119
REMARK   49  A    between atoms: _118  and  _121
REMARK   50  A    between atoms: _121  and  _122
REMARK   51  A    between atoms: _128  and  _129
REMARK   52  A    between atoms: _134  and  _136
REMARK   53  A    between atoms: _136  and  _137
REMARK   54  A    between atoms: _136  and  _139
REMARK   55  A    between atoms: _139  and  _140
REMARK   56  A    between atoms: _150  and  _152
REMARK   57  A    between atoms: _152  and  _153
REMARK   58  A    between atoms: _152  and  _155
REMARK   59  A    between atoms: _155  and  _156
REMARK   60  A    between atoms: _159  and  _161
REMARK   61  A    between atoms: _161  and  _162
REMARK   62  A    between atoms: _161  and  _164
REMARK   63  A    between atoms: _164  and  _165
REMARK   64  A    between atoms: _170  and  _171
REMARK   65  A    between atoms: _173  and  _175
REMARK   66  A    between atoms: _175  and  _176
REMARK   67  A    between atoms: _178  and  _180
REMARK   68  A    between atoms: _180  and  _181
REMARK   69  A    between atoms: _183  and  _185
REMARK   70  A    between atoms: _185  and  _186
REMARK   71  A    between atoms: _188  and  _190
REMARK   72  A    between atoms: _190  and  _191
REMARK   73  A    between atoms: _190  and  _193
REMARK   74  A    between atoms: _193  and  _194
REMARK   75  A    between atoms: _200  and  _202
REMARK   76  A    between atoms: _202  and  _203
REMARK   77  A    between atoms: _202  and  _205
REMARK   78  A    between atoms: _205  and  _206
REMARK   79  A    between atoms: _211  and  _212
REMARK   80  A    between atoms: _214  and  _216
REMARK   81  A    between atoms: _216  and  _217
REMARK   82  A    between atoms: _216  and  _219
REMARK   83  A    between atoms: _219  and  _220
REMARK   84  A    between atoms: _222  and  _224
REMARK   85  A    between atoms: _224  and  _225
REMARK   86  A    between atoms: _227  and  _229
REMARK   87  A    between atoms: _229  and  _230
REMARK   88  A    between atoms: _229  and  _232
REMARK   89  A    between atoms: _232  and  _233
REMARK   90  A    between atoms: _235  and  _237
REMARK   91  A    between atoms: _237  and  _238
REMARK   92  A    between atoms: _237  and  _240
REMARK   93  A    between atoms: _240  and  _241
REMARK   94  A    between atoms: _243  and  _245
REMARK   95  A    between atoms: _245  and  _246
REMARK   96  A    between atoms: _245  and  _248
REMARK   97  A    between atoms: _248  and  _249
REMARK   98  A    between atoms: _252  and  _254
REMARK   99  A    between atoms: _254  and  _255
REMARK  100  A    between atoms: _254  and  _257
REMARK  101  A    between atoms: _257  and  _258
REMARK  102  A    between atoms: _261  and  _263
REMARK  103  A    between atoms: _263  and  _264
REMARK  104  A    between atoms: _263  and  _266
REMARK  105  A    between atoms: _269  and  _271
REMARK  106  A    between atoms: _271  and  _272
REMARK  107  A    between atoms: _271  and  _274
REMARK  108  A    between atoms: _274  and  _275
REMARK  109  A    between atoms: _280  and  _281
REMARK  110  A    between atoms: _283  and  _285
REMARK  111  A    between atoms: _285  and  _286
REMARK  112  A    between atoms: _285  and  _288
REMARK  113  A    between atoms: _288  and  _289
REMARK  114  A    between atoms: _294  and  _295
REMARK  115  A    between atoms: _297  and  _299
REMARK  116  A    between atoms: _299  and  _300
REMARK  117  A    between atoms: _299  and  _302
REMARK  118  A    between atoms: _305  and  _307
REMARK  119  A    between atoms: _307  and  _308
REMARK  120  A    between atoms: _307  and  _310
REMARK  121  A    between atoms: _310  and  _311
REMARK  122  A    between atoms: _311  and  _312
REMARK  123  A    between atoms: _315  and  _317
REMARK  124  A    between atoms: _317  and  _318
REMARK  125  A    between atoms: _317  and  _320
REMARK  126  A    between atoms: _320  and  _321
REMARK  127  A    between atoms: _323  and  _325
REMARK  128  A    between atoms: _325  and  _326
REMARK  129  A    between atoms: _329  and  _331
REMARK  130  A    between atoms: _331  and  _332
REMARK  131  A    between atoms: _334  and  _336
REMARK  132  A    between atoms: _336  and  _337
REMARK  133  A    between atoms: _336  and  _339
REMARK  134  A    between atoms: _339  and  _340
REMARK  135  A    between atoms: _340  and  _341
REMARK  136  A    between atoms: _346  and  _348
REMARK  137  A    between atoms: _348  and  _349
REMARK  138  A    between atoms: _348  and  _351
REMARK  139  A    between atoms: _351  and  _352
REMARK  140  A    between atoms: _354  and  _356
REMARK  141  A    between atoms: _356  and  _357
REMARK  142  A    between atoms: _356  and  _359
REMARK  143  A    between atoms: _359  and  _360
REMARK  144  A    between atoms: _360  and  _361
REMARK  145  A    between atoms: _364  and  _366
REMARK  146  A    between atoms: _366  and  _367
REMARK  147  A    between atoms: _366  and  _369
REMARK  148  A    between atoms: _369  and  _370
REMARK  149  A    between atoms: _380  and  _382
REMARK  150  A    between atoms: _382  and  _383
REMARK  151  A    between atoms: _382  and  _385
REMARK  152  A    between atoms: _385  and  _386
REMARK  153  A    between atoms: _391  and  _393
REMARK  154  A    between atoms: _393  and  _394
REMARK  155  A    between atoms: _393  and  _396
REMARK  156  A    between atoms: _396  and  _397
REMARK  157  A    between atoms: _400  and  _402
REMARK  158  A    between atoms: _402  and  _403
REMARK  159  A    between atoms: _402  and  _405
REMARK  160  A    between atoms: _405  and  _406
REMARK  161  A    between atoms: _412  and  _414
REMARK  162  A    between atoms: _414  and  _415
REMARK  163  A    between atoms: _414  and  _417
REMARK  164  A    between atoms: _417  and  _418
REMARK  165  A    between atoms: _421  and  _423
REMARK  166  A    between atoms: _423  and  _424
REMARK  167  A    between atoms: _423  and  _426
REMARK  168  A    between atoms: _426  and  _427
REMARK  169  A    between atoms: _429  and  _431
REMARK  170  A    between atoms: _431  and  _432
REMARK  171  A    between atoms: _431  and  _434
REMARK  172  A    between atoms: _434  and  _435
REMARK  173  A    between atoms: _438  and  _440
REMARK  174  A    between atoms: _440  and  _441
REMARK  175  A    between atoms: _440  and  _443
REMARK  176  A    between atoms: _443  and  _444
REMARK  177  A    between atoms: _450  and  _452
REMARK  178  A    between atoms: _452  and  _453
REMARK  179  A    between atoms: _452  and  _455
REMARK  180  A    between atoms: _455  and  _456
REMARK  181  A    between atoms: _456  and  _457
REMARK  182  A    between atoms: _457  and  _458
REMARK  183  A    between atoms: _467  and  _469
REMARK  184  A    between atoms: _469  and  _470
REMARK  185  A    between atoms: _469  and  _472
REMARK  186  A    between atoms: _472  and  _473
REMARK  187  A    between atoms: _479  and  _481
REMARK  188  A    between atoms: _481  and  _482
REMARK  189  A    between atoms: _481  and  _484
REMARK  190  A    between atoms: _484  and  _485
REMARK  191  A    between atoms: _487  and  _489
REMARK  192  A    between atoms: _489  and  _490
REMARK  193  A    between atoms: _489  and  _492
REMARK  194  A    between atoms: _492  and  _493
REMARK  195  A    between atoms: _498  and  _500
REMARK  196  A    between atoms: _500  and  _501
REMARK  197  A    between atoms: _500  and  _503
REMARK  198  A    between atoms: _503  and  _504
REMARK  199  A    between atoms: _504  and  _505
REMARK  200  A    between atoms: _508  and  _510
REMARK  201  A    between atoms: _510  and  _511
REMARK  202  A    between atoms: _513  and  _515
REMARK  203  A    between atoms: _515  and  _516
REMARK  204  A    between atoms: _515  and  _518
REMARK  205  A    between atoms: _518  and  _519
REMARK  206  A    between atoms: _521  and  _523
REMARK  207  A    between atoms: _523  and  _524
REMARK  208  A    between atoms: _523  and  _526
REMARK  209  A    between atoms: _526  and  _527
REMARK  210  A    between atoms: _533  and  _535
REMARK  211  A    between atoms: _535  and  _536
REMARK  212  A    between atoms: _535  and  _538
REMARK  213  A    between atoms: _538  and  _539
REMARK  214  A    between atoms: _545  and  _547
REMARK  215  A    between atoms: _547  and  _548
REMARK  216  A    between atoms: _547  and  _550
REMARK  217  A    between atoms: _550  and  _551
REMARK  218  A    between atoms: _554  and  _556
REMARK  219  A    between atoms: _556  and  _557
REMARK  220  A    between atoms: _556  and  _559
REMARK  221  A    between atoms: _559  and  _560
REMARK  222  A    between atoms: _563  and  _565
REMARK  223  A    between atoms: _565  and  _566
REMARK  224  A    between atoms: _565  and  _568
REMARK  225  A    between atoms: _568  and  _569
REMARK  226  A    between atoms: _574  and  _575
REMARK  227  A    between atoms: _577  and  _579
REMARK  228  A    between atoms: _579  and  _580
REMARK  229  A    between atoms: _582  and  _584
REMARK  230  A    between atoms: _584  and  _585
REMARK  231  A    between atoms: _588  and  _590
REMARK  232  A    between atoms: _590  and  _591
REMARK  233  A    between atoms: _590  and  _593
REMARK  234  A    between atoms: _593  and  _594
REMARK  235  A    between atoms: _597  and  _599
REMARK  236  A    between atoms: _599  and  _600
REMARK  237  A    between atoms: _599  and  _602
REMARK  238  A    between atoms: _602  and  _603
REMARK  239  A    between atoms: _605  and  _607
REMARK  240  A    between atoms: _607  and  _608
REMARK  241  A    between atoms: _607  and  _610
REMARK  242  A    between atoms: _613  and  _615
REMARK  243  A    between atoms: _615  and  _616
REMARK  244  A    between atoms: _615  and  _618
REMARK  245  A    between atoms: _618  and  _619
REMARK  246  A    between atoms: _624  and  _626
REMARK  247  A    between atoms: _626  and  _627
REMARK  248  A    between atoms: _626  and  _629
REMARK  249  A    between atoms: _629  and  _630
REMARK  250  A    between atoms: _640  and  _642
REMARK  251  A    between atoms: _642  and  _643
REMARK  252  A    between atoms: _642  and  _645
REMARK  253  A    between atoms: _645  and  _646
REMARK  254  A    between atoms: _646  and  _647
REMARK  255  A    between atoms: _649  and  _651
REMARK  256  A    between atoms: _651  and  _652
REMARK  257  A    between atoms: _651  and  _654
REMARK  258  A    between atoms: _654  and  _655
REMARK  259  A    between atoms: _658  and  _660
REMARK  260  A    between atoms: _660  and  _661
REMARK  261  A    between atoms: _660  and  _663
REMARK  262  A    between atoms: _663  and  _664
REMARK  263  A    between atoms: _669  and  _671
REMARK  264  A    between atoms: _671  and  _672
REMARK  265  A    between atoms: _674  and  _676
REMARK  266  A    between atoms: _676  and  _677
REMARK  267  A    between atoms: _676  and  _679
REMARK  268  A    between atoms: _679  and  _680
REMARK  269  A    between atoms: _685  and  _686
REMARK  270  A    between atoms: _688  and  _690
REMARK  271  A    between atoms: _690  and  _691
REMARK  272  A    between atoms: _690  and  _693
REMARK  273  A    between atoms: _693  and  _694
REMARK  274  A    between atoms: _694  and  _695
REMARK  275  A    between atoms: _698  and  _700
REMARK  276  A    between atoms: _700  and  _701
REMARK  277  A    between atoms: _700  and  _703
REMARK  278  A    between atoms: _703  and  _704
REMARK                            x       y       z     vdW  Elec       q    Type
REMARK                         _______ _______ _______ _____ _____    ______ ____
ROOT
ATOM      1  O   HOH     1      -3.711  68.329  66.666  0.00  0.00    +0.000 OA
ENDROOT
TORSDOF 0
REMARK  Name = ../refined-set-2016/1h23/1h23_pocket.pdb
REMARK  278 active torsions:
REMARK  status: ('A' for Active; 'I' for Inactive)
REMARK    1  A    between atoms: _1  and  _3
REMARK    2  A    between atoms: _3  and  _4
REMARK    3  A    between atoms: _3  and  _6
REMARK    4  A    between atoms: _6  and  _7
REMARK    5  A    between atoms: _7  and  _8
REMARK    6  A    between atoms: _13  and  _15
REMARK    7  A    between atoms: _15  and  _16
REMARK    8  A    between atoms: _15  and  _18
REMARK    9  A    between atoms: _18  and  _19
REMARK   10  A    between atoms: _24  and  _25
REMARK   11  A    between atoms: _27  and  _29
REMARK   12  A    between atoms: _29  and  _30
REMARK   13  A    between atoms: _29  and  _32
REMARK   14  A    between atoms: _35  and  _37
REMARK   15  A    between atoms: _37  and  _38
REMARK   16  A    between atoms: _37  and  _40
REMARK   17  A    between atoms: _40  and  _41
REMARK   18  A    between atoms: _44  and  _46
REMARK   19  A    between atoms: _46  and  _47
REMARK   20  A    between atoms: _46  and  _49
REMARK   21  A    between atoms: _49  and  _50
REMARK   22  A    between atoms: _50  and  _51
REMARK   23  A    between atoms: _54  and  _56
REMARK   24  A    between atoms: _56  and  _57
REMARK   25  A    between atoms: _56  and  _59
REMARK   26  A    between atoms: _59  and  _60
REMARK   27  A    between atoms: _60  and  _61
REMARK   28  A    between atoms: _66  and  _68
REMARK   29  A    between atoms: _68  and  _69
REMARK   30  A    between atoms: _68  and  _71
REMARK   31  A    between atoms: _71  and  _72
REMARK   32  A    between atoms: _78  and  _80
REMARK   33  A    between atoms: _80  and  _81
REMARK   34  A    between atoms: _83  and  _85
REMARK   35  A    between atoms: _85  and  _86
REMARK   36  A    between atoms: _85  and  _88
REMARK   37  A    between atoms: _88  and  _89
REMARK   38  A    between atoms: _91  and  _93
REMARK   39  A    between atoms: _93  and  _94
REMARK   40  A    between atoms: _93  and  _96
REMARK   41  A    between atoms: _96  and  _97
REMARK   42  A    between atoms: _97  and  _98
REMARK   43  A    between atoms: _100  and  _102
REMARK   44  A    between atoms: _102  and  _103
REMARK   45  A    between atoms: _102  and  _105
REMARK   46  A    between atoms: _105  and  _106
REMARK   47  A    between atoms: _116  and  _118
REMARK   48  A    between atoms: _118  and  _119
REMARK   49  A    between atoms: _118  and  _121
REMARK   50  A    between atoms: _121  and  _122
REMARK   51  A    between atoms: _128  and  _129
REMARK   52  A    between atoms: _134  and  _136
REMARK   53  A    between atoms: _136  and  _137
REMARK   54  A    between atoms: _136  and  _139
REMARK   55  A    between atoms: _139  and  _140
REMARK   56  A    between atoms: _150  and  _152
REMARK   57  A    between atoms: _152  and  _153
REMARK   58  A    between atoms: _152  and  _155
REMARK   59  A    between atoms: _155  and  _156
REMARK   60  A    between atoms: _159  and  _161
REMARK   61  A    between atoms: _161  and  _162
REMARK   62  A    between atoms: _161  and  _164
REMARK   63  A    between atoms: _164  and  _165
REMARK   64  A    between atoms: _170  and  _171
REMARK   65  A    between atoms: _173  and  _175
REMARK   66  A    between atoms: _175  and  _176
REMARK   67  A    between atoms: _178  and  _180
REMARK   68  A    between atoms: _180  and  _181
REMARK   69  A    between atoms: _183  and  _185
REMARK   70  A    between atoms: _185  and  _186
REMARK   71  A    between atoms: _188  and  _190
REMARK   72  A    between atoms: _190  and  _191
REMARK   73  A    between atoms: _190  and  _193
REMARK   74  A    between atoms: _193  and  _194
REMARK   75  A    between atoms: _200  and  _202
REMARK   76  A    between atoms: _202  and  _203
REMARK   77  A    between atoms: _202  and  _205
REMARK   78  A    between atoms: _205  and  _206
REMARK   79  A    between atoms: _211  and  _212
REMARK   80  A    between atoms: _214  and  _216
REMARK   81  A    between atoms: _216  and  _217
REMARK   82  A    between atoms: _216  and  _219
REMARK   83  A    between atoms: _219  and  _220
REMARK   84  A    between atoms: _222  and  _224
REMARK   85  A    between atoms: _224  and  _225
REMARK   86  A    between atoms: _227  and  _229
REMARK   87  A    between atoms: _229  and  _230
REMARK   88  A    between atoms: _229  and  _232
REMARK   89  A    between atoms: _232  and  _233
REMARK   90  A    between atoms: _235  and  _237
REMARK   91  A    between atoms: _237  and  _238
REMARK   92  A    between atoms: _237  and  _240
REMARK   93  A    between atoms: _240  and  _241
REMARK   94  A    between atoms: _243  and  _245
REMARK   95  A    between atoms: _245  and  _246
REMARK   96  A    between atoms: _245  and  _248
REMARK   97  A    between atoms: _248  and  _249
REMARK   98  A    between atoms: _252  and  _254
REMARK   99  A    between atoms: _254  and  _255
REMARK  100  A    between atoms: _254  and  _257
REMARK  101  A    between atoms: _257  and  _258
REMARK  102  A    between atoms: _261  and  _263
REMARK  103  A    between atoms: _263  and  _264
REMARK  104  A    between atoms: _263  and  _266
REMARK  105  A    between atoms: _269  and  _271
REMARK  106  A    between atoms: _271  and  _272
REMARK  107  A    between atoms: _271  and  _274
REMARK  108  A    between atoms: _274  and  _275
REMARK  109  A    between atoms: _280  and  _281
REMARK  110  A    between atoms: _283  and  _285
REMARK  111  A    between atoms: _285  and  _286
REMARK  112  A    between atoms: _285  and  _288
REMARK  113  A    between atoms: _288  and  _289
REMARK  114  A    between atoms: _294  and  _295
REMARK  115  A    between atoms: _297  and  _299
REMARK  116  A    between atoms: _299  and  _300
REMARK  117  A    between atoms: _299  and  _302
REMARK  118  A    between atoms: _305  and  _307
REMARK  119  A    between atoms: _307  and  _308
REMARK  120  A    between atoms: _307  and  _310
REMARK  121  A    between atoms: _310  and  _311
REMARK  122  A    between atoms: _311  and  _312
REMARK  123  A    between atoms: _315  and  _317
REMARK  124  A    between atoms: _317  and  _318
REMARK  125  A    between atoms: _317  and  _320
REMARK  126  A    between atoms: _320  and  _321
REMARK  127  A    between atoms: _323  and  _325
REMARK  128  A    between atoms: _325  and  _326
REMARK  129  A    between atoms: _329  and  _331
REMARK  130  A    between atoms: _331  and  _332
REMARK  131  A    between atoms: _334  and  _336
REMARK  132  A    between atoms: _336  and  _337
REMARK  133  A    between atoms: _336  and  _339
REMARK  134  A    between atoms: _339  and  _340
REMARK  135  A    between atoms: _340  and  _341
REMARK  136  A    between atoms: _346  and  _348
REMARK  137  A    between atoms: _348  and  _349
REMARK  138  A    between atoms: _348  and  _351
REMARK  139  A    between atoms: _351  and  _352
REMARK  140  A    between atoms: _354  and  _356
REMARK  141  A    between atoms: _356  and  _357
REMARK  142  A    between atoms: _356  and  _359
REMARK  143  A    between atoms: _359  and  _360
REMARK  144  A    between atoms: _360  and  _361
REMARK  145  A    between atoms: _364  and  _366
REMARK  146  A    between atoms: _366  and  _367
REMARK  147  A    between atoms: _366  and  _369
REMARK  148  A    between atoms: _369  and  _370
REMARK  149  A    between atoms: _380  and  _382
REMARK  150  A    between atoms: _382  and  _383
REMARK  151  A    between atoms: _382  and  _385
REMARK  152  A    between atoms: _385  and  _386
REMARK  153  A    between atoms: _391  and  _393
REMARK  154  A    between atoms: _393  and  _394
REMARK  155  A    between atoms: _393  and  _396
REMARK  156  A    between atoms: _396  and  _397
REMARK  157  A    between atoms: _400  and  _402
REMARK  158  A    between atoms: _402  and  _403
REMARK  159  A    between atoms: _402  and  _405
REMARK  160  A    between atoms: _405  and  _406
REMARK  161  A    between atoms: _412  and  _414
REMARK  162  A    between atoms: _414  and  _415
REMARK  163  A    between atoms: _414  and  _417
REMARK  164  A    between atoms: _417  and  _418
REMARK  165  A    between atoms: _421  and  _423
REMARK  166  A    between atoms: _423  and  _424
REMARK  167  A    between atoms: _423  and  _426
REMARK  168  A    between atoms: _426  and  _427
REMARK  169  A    between atoms: _429  and  _431
REMARK  170  A    between atoms: _431  and  _432
REMARK  171  A    between atoms: _431  and  _434
REMARK  172  A    between atoms: _434  and  _435
REMARK  173  A    between atoms: _438  and  _440
REMARK  174  A    between atoms: _440  and  _441
REMARK  175  A    between atoms: _440  and  _443
REMARK  176  A    between atoms: _443  and  _444
REMARK  177  A    between atoms: _450  and  _452
REMARK  178  A    between atoms: _452  and  _453
REMARK  179  A    between atoms: _452  and  _455
REMARK  180  A    between atoms: _455  and  _456
REMARK  181  A    between atoms: _456  and  _457
REMARK  182  A    between atoms: _457  and  _458
REMARK  183  A    between atoms: _467  and  _469
REMARK  184  A    between atoms: _469  and  _470
REMARK  185  A    between atoms: _469  and  _472
REMARK  186  A    between atoms: _472  and  _473
REMARK  187  A    between atoms: _479  and  _481
REMARK  188  A    between atoms: _481  and  _482
REMARK  189  A    between atoms: _481  and  _484
REMARK  190  A    between atoms: _484  and  _485
REMARK  191  A    between atoms: _487  and  _489
REMARK  192  A    between atoms: _489  and  _490
REMARK  193  A    between atoms: _489  and  _492
REMARK  194  A    between atoms: _492  and  _493
REMARK  195  A    between atoms: _498  and  _500
REMARK  196  A    between atoms: _500  and  _501
REMARK  197  A    between atoms: _500  and  _503
REMARK  198  A    between atoms: _503  and  _504
REMARK  199  A    between atoms: _504  and  _505
REMARK  200  A    between atoms: _508  and  _510
REMARK  201  A    between atoms: _510  and  _511
REMARK  202  A    between atoms: _513  and  _515
REMARK  203  A    between atoms: _515  and  _516
REMARK  204  A    between atoms: _515  and  _518
REMARK  205  A    between atoms: _518  and  _519
REMARK  206  A    between atoms: _521  and  _523
REMARK  207  A    between atoms: _523  and  _524
REMARK  208  A    between atoms: _523  and  _526
REMARK  209  A    between atoms: _526  and  _527
REMARK  210  A    between atoms: _533  and  _535
REMARK  211  A    between atoms: _535  and  _536
REMARK  212  A    between atoms: _535  and  _538
REMARK  213  A    between atoms: _538  and  _539
REMARK  214  A    between atoms: _545  and  _547
REMARK  215  A    between atoms: _547  and  _548
REMARK  216  A    between atoms: _547  and  _550
REMARK  217  A    between atoms: _550  and  _551
REMARK  218  A    between atoms: _554  and  _556
REMARK  219  A    between atoms: _556  and  _557
REMARK  220  A    between atoms: _556  and  _559
REMARK  221  A    between atoms: _559  and  _560
REMARK  222  A    between atoms: _563  and  _565
REMARK  223  A    between atoms: _565  and  _566
REMARK  224  A    between atoms: _565  and  _568
REMARK  225  A    between atoms: _568  and  _569
REMARK  226  A    between atoms: _574  and  _575
REMARK  227  A    between atoms: _577  and  _579
REMARK  228  A    between atoms: _579  and  _580
REMARK  229  A    between atoms: _582  and  _584
REMARK  230  A    between atoms: _584  and  _585
REMARK  231  A    between atoms: _588  and  _590
REMARK  232  A    between atoms: _590  and  _591
REMARK  233  A    between atoms: _590  and  _593
REMARK  234  A    between atoms: _593  and  _594
REMARK  235  A    between atoms: _597  and  _599
REMARK  236  A    between atoms: _599  and  _600
REMARK  237  A    between atoms: _599  and  _602
REMARK  238  A    between atoms: _602  and  _603
REMARK  239  A    between atoms: _605  and  _607
REMARK  240  A    between atoms: _607  and  _608
REMARK  241  A    between atoms: _607  and  _610
REMARK  242  A    between atoms: _613  and  _615
REMARK  243  A    between atoms: _615  and  _616
REMARK  244  A    between atoms: _615  and  _618
REMARK  245  A    between atoms: _618  and  _619
REMARK  246  A    between atoms: _624  and  _626
REMARK  247  A    between atoms: _626  and  _627
REMARK  248  A    between atoms: _626  and  _629
REMARK  249  A    between atoms: _629  and  _630
REMARK  250  A    between atoms: _640  and  _642
REMARK  251  A    between atoms: _642  and  _643
REMARK  252  A    between atoms: _642  and  _645
REMARK  253  A    between atoms: _645  and  _646
REMARK  254  A    between atoms: _646  and  _647
REMARK  255  A    between atoms: _649  and  _651
REMARK  256  A    between atoms: _651  and  _652
REMARK  257  A    between atoms: _651  and  _654
REMARK  258  A    between atoms: _654  and  _655
REMARK  259  A    between atoms: _658  and  _660
REMARK  260  A    between atoms: _660  and  _661
REMARK  261  A    between atoms: _660  and  _663
REMARK  262  A    between atoms: _663  and  _664
REMARK  263  A    between atoms: _669  and  _671
REMARK  264  A    between atoms: _671  and  _672
REMARK  265  A    between atoms: _674  and  _676
REMARK  266  A    between atoms: _676  and  _677
REMARK  267  A    between atoms: _676  and  _679
REMARK  268  A    between atoms: _679  and  _680
REMARK  269  A    between atoms: _685  and  _686
REMARK  270  A    between atoms: _688  and  _690
REMARK  271  A    between atoms: _690  and  _691
REMARK  272  A    between atoms: _690  and  _693
REMARK  273  A    between atoms: _693  and  _694
REMARK  274  A    between atoms: _694  and  _695
REMARK  275  A    between atoms: _698  and  _700
REMARK  276  A    between atoms: _700  and  _701
REMARK  277  A    between atoms: _700  and  _703
REMARK  278  A    between atoms: _703  and  _704
REMARK                            x       y       z     vdW  Elec       q    Type
REMARK                         _______ _______ _______ _____ _____    ______ ____
ROOT
ATOM      1  O   HOH     1       4.337  62.826  64.191  0.00  0.00    +0.000 OA
ENDROOT
TORSDOF 0
REMARK  Name = ../refined-set-2016/1h23/1h23_pocket.pdb
REMARK  278 active torsions:
REMARK  status: ('A' for Active; 'I' for Inactive)
REMARK    1  A    between atoms: _1  and  _3
REMARK    2  A    between atoms: _3  and  _4
REMARK    3  A    between atoms: _3  and  _6
REMARK    4  A    between atoms: _6  and  _7
REMARK    5  A    between atoms: _7  and  _8
REMARK    6  A    between atoms: _13  and  _15
REMARK    7  A    between atoms: _15  and  _16
REMARK    8  A    between atoms: _15  and  _18
REMARK    9  A    between atoms: _18  and  _19
REMARK   10  A    between atoms: _24  and  _25
REMARK   11  A    between atoms: _27  and  _29
REMARK   12  A    between atoms: _29  and  _30
REMARK   13  A    between atoms: _29  and  _32
REMARK   14  A    between atoms: _35  and  _37
REMARK   15  A    between atoms: _37  and  _38
REMARK   16  A    between atoms: _37  and  _40
REMARK   17  A    between atoms: _40  and  _41
REMARK   18  A    between atoms: _44  and  _46
REMARK   19  A    between atoms: _46  and  _47
REMARK   20  A    between atoms: _46  and  _49
REMARK   21  A    between atoms: _49  and  _50
REMARK   22  A    between atoms: _50  and  _51
REMARK   23  A    between atoms: _54  and  _56
REMARK   24  A    between atoms: _56  and  _57
REMARK   25  A    between atoms: _56  and  _59
REMARK   26  A    between atoms: _59  and  _60
REMARK   27  A    between atoms: _60  and  _61
REMARK   28  A    between atoms: _66  and  _68
REMARK   29  A    between atoms: _68  and  _69
REMARK   30  A    between atoms: _68  and  _71
REMARK   31  A    between atoms: _71  and  _72
REMARK   32  A    between atoms: _78  and  _80
REMARK   33  A    between atoms: _80  and  _81
REMARK   34  A    between atoms: _83  and  _85
REMARK   35  A    between atoms: _85  and  _86
REMARK   36  A    between atoms: _85  and  _88
REMARK   37  A    between atoms: _88  and  _89
REMARK   38  A    between atoms: _91  and  _93
REMARK   39  A    between atoms: _93  and  _94
REMARK   40  A    between atoms: _93  and  _96
REMARK   41  A    between atoms: _96  and  _97
REMARK   42  A    between atoms: _97  and  _98
REMARK   43  A    between atoms: _100  and  _102
REMARK   44  A    between atoms: _102  and  _103
REMARK   45  A    between atoms: _102  and  _105
REMARK   46  A    between atoms: _105  and  _106
REMARK   47  A    between atoms: _116  and  _118
REMARK   48  A    between atoms: _118  and  _119
REMARK   49  A    between atoms: _118  and  _121
REMARK   50  A    between atoms: _121  and  _122
REMARK   51  A    between atoms: _128  and  _129
REMARK   52  A    between atoms: _134  and  _136
REMARK   53  A    between atoms: _136  and  _137
REMARK   54  A    between atoms: _136  and  _139
REMARK   55  A    between atoms: _139  and  _140
REMARK   56  A    between atoms: _150  and  _152
REMARK   57  A    between atoms: _152  and  _153
REMARK   58  A    between atoms: _152  and  _155
REMARK   59  A    between atoms: _155  and  _156
REMARK   60  A    between atoms: _159  and  _161
REMARK   61  A    between atoms: _161  and  _162
REMARK   62  A    between atoms: _161  and  _164
REMARK   63  A    between atoms: _164  and  _165
REMARK   64  A    between atoms: _170  and  _171
REMARK   65  A    between atoms: _173  and  _175
REMARK   66  A    between atoms: _175  and  _176
REMARK   67  A    between atoms: _178  and  _180
REMARK   68  A    between atoms: _180  and  _181
REMARK   69  A    between atoms: _183  and  _185
REMARK   70  A    between atoms: _185  and  _186
REMARK   71  A    between atoms: _188  and  _190
REMARK   72  A    between atoms: _190  and  _191
REMARK   73  A    between atoms: _190  and  _193
REMARK   74  A    between atoms: _193  and  _194
REMARK   75  A    between atoms: _200  and  _202
REMARK   76  A    between atoms: _202  and  _203
REMARK   77  A    between atoms: _202  and  _205
REMARK   78  A    between atoms: _205  and  _206
REMARK   79  A    between atoms: _211  and  _212
REMARK   80  A    between atoms: _214  and  _216
REMARK   81  A    between atoms: _216  and  _217
REMARK   82  A    between atoms: _216  and  _219
REMARK   83  A    between atoms: _219  and  _220
REMARK   84  A    between atoms: _222  and  _224
REMARK   85  A    between atoms: _224  and  _225
REMARK   86  A    between atoms: _227  and  _229
REMARK   87  A    between atoms: _229  and  _230
REMARK   88  A    between atoms: _229  and  _232
REMARK   89  A    between atoms: _232  and  _233
REMARK   90  A    between atoms: _235  and  _237
REMARK   91  A    between atoms: _237  and  _238
REMARK   92  A    between atoms: _237  and  _240
REMARK   93  A    between atoms: _240  and  _241
REMARK   94  A    between atoms: _243  and  _245
REMARK   95  A    between atoms: _245  and  _246
REMARK   96  A    between atoms: _245  and  _248
REMARK   97  A    between atoms: _248  and  _249
REMARK   98  A    between atoms: _252  and  _254
REMARK   99  A    between atoms: _254  and  _255
REMARK  100  A    between atoms: _254  and  _257
REMARK  101  A    between atoms: _257  and  _258
REMARK  102  A    between atoms: _261  and  _263
REMARK  103  A    between atoms: _263  and  _264
REMARK  104  A    between atoms: _263  and  _266
REMARK  105  A    between atoms: _269  and  _271
REMARK  106  A    between atoms: _271  and  _272
REMARK  107  A    between atoms: _271  and  _274
REMARK  108  A    between atoms: _274  and  _275
REMARK  109  A    between atoms: _280  and  _281
REMARK  110  A    between atoms: _283  and  _285
REMARK  111  A    between atoms: _285  and  _286
REMARK  112  A    between atoms: _285  and  _288
REMARK  113  A    between atoms: _288  and  _289
REMARK  114  A    between atoms: _294  and  _295
REMARK  115  A    between atoms: _297  and  _299
REMARK  116  A    between atoms: _299  and  _300
REMARK  117  A    between atoms: _299  and  _302
REMARK  118  A    between atoms: _305  and  _307
REMARK  119  A    between atoms: _307  and  _308
REMARK  120  A    between atoms: _307  and  _310
REMARK  121  A    between atoms: _310  and  _311
REMARK  122  A    between atoms: _311  and  _312
REMARK  123  A    between atoms: _315  and  _317
REMARK  124  A    between atoms: _317  and  _318
REMARK  125  A    between atoms: _317  and  _320
REMARK  126  A    between atoms: _320  and  _321
REMARK  127  A    between atoms: _323  and  _325
REMARK  128  A    between atoms: _325  and  _326
REMARK  129  A    between atoms: _329  and  _331
REMARK  130  A    between atoms: _331  and  _332
REMARK  131  A    between atoms: _334  and  _336
REMARK  132  A    between atoms: _336  and  _337
REMARK  133  A    between atoms: _336  and  _339
REMARK  134  A    between atoms: _339  and  _340
REMARK  135  A    between atoms: _340  and  _341
REMARK  136  A    between atoms: _346  and  _348
REMARK  137  A    between atoms: _348  and  _349
REMARK  138  A    between atoms: _348  and  _351
REMARK  139  A    between atoms: _351  and  _352
REMARK  140  A    between atoms: _354  and  _356
REMARK  141  A    between atoms: _356  and  _357
REMARK  142  A    between atoms: _356  and  _359
REMARK  143  A    between atoms: _359  and  _360
REMARK  144  A    between atoms: _360  and  _361
REMARK  145  A    between atoms: _364  and  _366
REMARK  146  A    between atoms: _366  and  _367
REMARK  147  A    between atoms: _366  and  _369
REMARK  148  A    between atoms: _369  and  _370
REMARK  149  A    between atoms: _380  and  _382
REMARK  150  A    between atoms: _382  and  _383
REMARK  151  A    between atoms: _382  and  _385
REMARK  152  A    between atoms: _385  and  _386
REMARK  153  A    between atoms: _391  and  _393
REMARK  154  A    between atoms: _393  and  _394
REMARK  155  A    between atoms: _393  and  _396
REMARK  156  A    between atoms: _396  and  _397
REMARK  157  A    between atoms: _400  and  _402
REMARK  158  A    between atoms: _402  and  _403
REMARK  159  A    between atoms: _402  and  _405
REMARK  160  A    between atoms: _405  and  _406
REMARK  161  A    between atoms: _412  and  _414
REMARK  162  A    between atoms: _414  and  _415
REMARK  163  A    between atoms: _414  and  _417
REMARK  164  A    between atoms: _417  and  _418
REMARK  165  A    between atoms: _421  and  _423
REMARK  166  A    between atoms: _423  and  _424
REMARK  167  A    between atoms: _423  and  _426
REMARK  168  A    between atoms: _426  and  _427
REMARK  169  A    between atoms: _429  and  _431
REMARK  170  A    between atoms: _431  and  _432
REMARK  171  A    between atoms: _431  and  _434
REMARK  172  A    between atoms: _434  and  _435
REMARK  173  A    between atoms: _438  and  _440
REMARK  174  A    between atoms: _440  and  _441
REMARK  175  A    between atoms: _440  and  _443
REMARK  176  A    between atoms: _443  and  _444
REMARK  177  A    between atoms: _450  and  _452
REMARK  178  A    between atoms: _452  and  _453
REMARK  179  A    between atoms: _452  and  _455
REMARK  180  A    between atoms: _455  and  _456
REMARK  181  A    between atoms: _456  and  _457
REMARK  182  A    between atoms: _457  and  _458
REMARK  183  A    between atoms: _467  and  _469
REMARK  184  A    between atoms: _469  and  _470
REMARK  185  A    between atoms: _469  and  _472
REMARK  186  A    between atoms: _472  and  _473
REMARK  187  A    between atoms: _479  and  _481
REMARK  188  A    between atoms: _481  and  _482
REMARK  189  A    between atoms: _481  and  _484
REMARK  190  A    between atoms: _484  and  _485
REMARK  191  A    between atoms: _487  and  _489
REMARK  192  A    between atoms: _489  and  _490
REMARK  193  A    between atoms: _489  and  _492
REMARK  194  A    between atoms: _492  and  _493
REMARK  195  A    between atoms: _498  and  _500
REMARK  196  A    between atoms: _500  and  _501
REMARK  197  A    between atoms: _500  and  _503
REMARK  198  A    between atoms: _503  and  _504
REMARK  199  A    between atoms: _504  and  _505
REMARK  200  A    between atoms: _508  and  _510
REMARK  201  A    between atoms: _510  and  _511
REMARK  202  A    between atoms: _513  and  _515
REMARK  203  A    between atoms: _515  and  _516
REMARK  204  A    between atoms: _515  and  _518
REMARK  205  A    between atoms: _518  and  _519
REMARK  206  A    between atoms: _521  and  _523
REMARK  207  A    between atoms: _523  and  _524
REMARK  208  A    between atoms: _523  and  _526
REMARK  209  A    between atoms: _526  and  _527
REMARK  210  A    between atoms: _533  and  _535
REMARK  211  A    between atoms: _535  and  _536
REMARK  212  A    between atoms: _535  and  _538
REMARK  213  A    between atoms: _538  and  _539
REMARK  214  A    between atoms: _545  and  _547
REMARK  215  A    between atoms: _547  and  _548
REMARK  216  A    between atoms: _547  and  _550
REMARK  217  A    between atoms: _550  and  _551
REMARK  218  A    between atoms: _554  and  _556
REMARK  219  A    between atoms: _556  and  _557
REMARK  220  A    between atoms: _556  and  _559
REMARK  221  A    between atoms: _559  and  _560
REMARK  222  A    between atoms: _563  and  _565
REMARK  223  A    between atoms: _565  and  _566
REMARK  224  A    between atoms: _565  and  _568
REMARK  225  A    between atoms: _568  and  _569
REMARK  226  A    between atoms: _574  and  _575
REMARK  227  A    between atoms: _577  and  _579
REMARK  228  A    between atoms: _579  and  _580
REMARK  229  A    between atoms: _582  and  _584
REMARK  230  A    between atoms: _584  and  _585
REMARK  231  A    between atoms: _588  and  _590
REMARK  232  A    between atoms: _590  and  _591
REMARK  233  A    between atoms: _590  and  _593
REMARK  234  A    between atoms: _593  and  _594
REMARK  235  A    between atoms: _597  and  _599
REMARK  236  A    between atoms: _599  and  _600
REMARK  237  A    between atoms: _599  and  _602
REMARK  238  A    between atoms: _602  and  _603
REMARK  239  A    between atoms: _605  and  _607
REMARK  240  A    between atoms: _607  and  _608
REMARK  241  A    between atoms: _607  and  _610
REMARK  242  A    between atoms: _613  and  _615
REMARK  243  A    between atoms: _615  and  _616
REMARK  244  A    between atoms: _615  and  _618
REMARK  245  A    between atoms: _618  and  _619
REMARK  246  A    between atoms: _624  and  _626
REMARK  247  A    between atoms: _626  and  _627
REMARK  248  A    between atoms: _626  and  _629
REMARK  249  A    between atoms: _629  and  _630
REMARK  250  A    between atoms: _640  and  _642
REMARK  251  A    between atoms: _642  and  _643
REMARK  252  A    between atoms: _642  and  _645
REMARK  253  A    between atoms: _645  and  _646
REMARK  254  A    between atoms: _646  and  _647
REMARK  255  A    between atoms: _649  and  _651
REMARK  256  A    between atoms: _651  and  _652
REMARK  257  A    between atoms: _651  and  _654
REMARK  258  A    between atoms: _654  and  _655
REMARK  259  A    between atoms: _658  and  _660
REMARK  260  A    between atoms: _660  and  _661
REMARK  261  A    between atoms: _660  and  _663
REMARK  262  A    between atoms: _663  and  _664
REMARK  263  A    between atoms: _669  and  _671
REMARK  264  A    between atoms: _671  and  _672
REMARK  265  A    between atoms: _674  and  _676
REMARK  266  A    between atoms: _676  and  _677
REMARK  267  A    between atoms: _676  and  _679
REMARK  268  A    between atoms: _679  and  _680
REMARK  269  A    between atoms: _685  and  _686
REMARK  270  A    between atoms: _688  and  _690
REMARK  271  A    between atoms: _690  and  _691
REMARK  272  A    between atoms: _690  and  _693
REMARK  273  A    between atoms: _693  and  _694
REMARK  274  A    between atoms: _694  and  _695
REMARK  275  A    between atoms: _698  and  _700
REMARK  276  A    between atoms: _700  and  _701
REMARK  277  A    between atoms: _700  and  _703
REMARK  278  A    between atoms: _703  and  _704
REMARK                            x       y       z     vdW  Elec       q    Type
REMARK                         _______ _______ _______ _____ _____    ______ ____
ROOT
ATOM      1  O   HOH     1      -0.798  63.106  59.245  0.00  0.00    +0.000 OA
ENDROOT
TORSDOF 0
REMARK  Name = ../refined-set-2016/1h23/1h23_pocket.pdb
REMARK  278 active torsions:
REMARK  status: ('A' for Active; 'I' for Inactive)
REMARK    1  A    between atoms: _1  and  _3
REMARK    2  A    between atoms: _3  and  _4
REMARK    3  A    between atoms: _3  and  _6
REMARK    4  A    between atoms: _6  and  _7
REMARK    5  A    between atoms: _7  and  _8
REMARK    6  A    between atoms: _13  and  _15
REMARK    7  A    between atoms: _15  and  _16
REMARK    8  A    between atoms: _15  and  _18
REMARK    9  A    between atoms: _18  and  _19
REMARK   10  A    between atoms: _24  and  _25
REMARK   11  A    between atoms: _27  and  _29
REMARK   12  A    between atoms: _29  and  _30
REMARK   13  A    between atoms: _29  and  _32
REMARK   14  A    between atoms: _35  and  _37
REMARK   15  A    between atoms: _37  and  _38
REMARK   16  A    between atoms: _37  and  _40
REMARK   17  A    between atoms: _40  and  _41
REMARK   18  A    between atoms: _44  and  _46
REMARK   19  A    between atoms: _46  and  _47
REMARK   20  A    between atoms: _46  and  _49
REMARK   21  A    between atoms: _49  and  _50
REMARK   22  A    between atoms: _50  and  _51
REMARK   23  A    between atoms: _54  and  _56
REMARK   24  A    between atoms: _56  and  _57
REMARK   25  A    between atoms: _56  and  _59
REMARK   26  A    between atoms: _59  and  _60
REMARK   27  A    between atoms: _60  and  _61
REMARK   28  A    between atoms: _66  and  _68
REMARK   29  A    between atoms: _68  and  _69
REMARK   30  A    between atoms: _68  and  _71
REMARK   31  A    between atoms: _71  and  _72
REMARK   32  A    between atoms: _78  and  _80
REMARK   33  A    between atoms: _80  and  _81
REMARK   34  A    between atoms: _83  and  _85
REMARK   35  A    between atoms: _85  and  _86
REMARK   36  A    between atoms: _85  and  _88
REMARK   37  A    between atoms: _88  and  _89
REMARK   38  A    between atoms: _91  and  _93
REMARK   39  A    between atoms: _93  and  _94
REMARK   40  A    between atoms: _93  and  _96
REMARK   41  A    between atoms: _96  and  _97
REMARK   42  A    between atoms: _97  and  _98
REMARK   43  A    between atoms: _100  and  _102
REMARK   44  A    between atoms: _102  and  _103
REMARK   45  A    between atoms: _102  and  _105
REMARK   46  A    between atoms: _105  and  _106
REMARK   47  A    between atoms: _116  and  _118
REMARK   48  A    between atoms: _118  and  _119
REMARK   49  A    between atoms: _118  and  _121
REMARK   50  A    between atoms: _121  and  _122
REMARK   51  A    between atoms: _128  and  _129
REMARK   52  A    between atoms: _134  and  _136
REMARK   53  A    between atoms: _136  and  _137
REMARK   54  A    between atoms: _136  and  _139
REMARK   55  A    between atoms: _139  and  _140
REMARK   56  A    between atoms: _150  and  _152
REMARK   57  A    between atoms: _152  and  _153
REMARK   58  A    between atoms: _152  and  _155
REMARK   59  A    between atoms: _155  and  _156
REMARK   60  A    between atoms: _159  and  _161
REMARK   61  A    between atoms: _161  and  _162
REMARK   62  A    between atoms: _161  and  _164
REMARK   63  A    between atoms: _164  and  _165
REMARK   64  A    between atoms: _170  and  _171
REMARK   65  A    between atoms: _173  and  _175
REMARK   66  A    between atoms: _175  and  _176
REMARK   67  A    between atoms: _178  and  _180
REMARK   68  A    between atoms: _180  and  _181
REMARK   69  A    between atoms: _183  and  _185
REMARK   70  A    between atoms: _185  and  _186
REMARK   71  A    between atoms: _188  and  _190
REMARK   72  A    between atoms: _190  and  _191
REMARK   73  A    between atoms: _190  and  _193
REMARK   74  A    between atoms: _193  and  _194
REMARK   75  A    between atoms: _200  and  _202
REMARK   76  A    between atoms: _202  and  _203
REMARK   77  A    between atoms: _202  and  _205
REMARK   78  A    between atoms: _205  and  _206
REMARK   79  A    between atoms: _211  and  _212
REMARK   80  A    between atoms: _214  and  _216
REMARK   81  A    between atoms: _216  and  _217
REMARK   82  A    between atoms: _216  and  _219
REMARK   83  A    between atoms: _219  and  _220
REMARK   84  A    between atoms: _222  and  _224
REMARK   85  A    between atoms: _224  and  _225
REMARK   86  A    between atoms: _227  and  _229
REMARK   87  A    between atoms: _229  and  _230
REMARK   88  A    between atoms: _229  and  _232
REMARK   89  A    between atoms: _232  and  _233
REMARK   90  A    between atoms: _235  and  _237
REMARK   91  A    between atoms: _237  and  _238
REMARK   92  A    between atoms: _237  and  _240
REMARK   93  A    between atoms: _240  and  _241
REMARK   94  A    between atoms: _243  and  _245
REMARK   95  A    between atoms: _245  and  _246
REMARK   96  A    between atoms: _245  and  _248
REMARK   97  A    between atoms: _248  and  _249
REMARK   98  A    between atoms: _252  and  _254
REMARK   99  A    between atoms: _254  and  _255
REMARK  100  A    between atoms: _254  and  _257
REMARK  101  A    between atoms: _257  and  _258
REMARK  102  A    between atoms: _261  and  _263
REMARK  103  A    between atoms: _263  and  _264
REMARK  104  A    between atoms: _263  and  _266
REMARK  105  A    between atoms: _269  and  _271
REMARK  106  A    between atoms: _271  and  _272
REMARK  107  A    between atoms: _271  and  _274
REMARK  108  A    between atoms: _274  and  _275
REMARK  109  A    between atoms: _280  and  _281
REMARK  110  A    between atoms: _283  and  _285
REMARK  111  A    between atoms: _285  and  _286
REMARK  112  A    between atoms: _285  and  _288
REMARK  113  A    between atoms: _288  and  _289
REMARK  114  A    between atoms: _294  and  _295
REMARK  115  A    between atoms: _297  and  _299
REMARK  116  A    between atoms: _299  and  _300
REMARK  117  A    between atoms: _299  and  _302
REMARK  118  A    between atoms: _305  and  _307
REMARK  119  A    between atoms: _307  and  _308
REMARK  120  A    between atoms: _307  and  _310
REMARK  121  A    between atoms: _310  and  _311
REMARK  122  A    between atoms: _311  and  _312
REMARK  123  A    between atoms: _315  and  _317
REMARK  124  A    between atoms: _317  and  _318
REMARK  125  A    between atoms: _317  and  _320
REMARK  126  A    between atoms: _320  and  _321
REMARK  127  A    between atoms: _323  and  _325
REMARK  128  A    between atoms: _325  and  _326
REMARK  129  A    between atoms: _329  and  _331
REMARK  130  A    between atoms: _331  and  _332
REMARK  131  A    between atoms: _334  and  _336
REMARK  132  A    between atoms: _336  and  _337
REMARK  133  A    between atoms: _336  and  _339
REMARK  134  A    between atoms: _339  and  _340
REMARK  135  A    between atoms: _340  and  _341
REMARK  136  A    between atoms: _346  and  _348
REMARK  137  A    between atoms: _348  and  _349
REMARK  138  A    between atoms: _348  and  _351
REMARK  139  A    between atoms: _351  and  _352
REMARK  140  A    between atoms: _354  and  _356
REMARK  141  A    between atoms: _356  and  _357
REMARK  142  A    between atoms: _356  and  _359
REMARK  143  A    between atoms: _359  and  _360
REMARK  144  A    between atoms: _360  and  _361
REMARK  145  A    between atoms: _364  and  _366
REMARK  146  A    between atoms: _366  and  _367
REMARK  147  A    between atoms: _366  and  _369
REMARK  148  A    between atoms: _369  and  _370
REMARK  149  A    between atoms: _380  and  _382
REMARK  150  A    between atoms: _382  and  _383
REMARK  151  A    between atoms: _382  and  _385
REMARK  152  A    between atoms: _385  and  _386
REMARK  153  A    between atoms: _391  and  _393
REMARK  154  A    between atoms: _393  and  _394
REMARK  155  A    between atoms: _393  and  _396
REMARK  156  A    between atoms: _396  and  _397
REMARK  157  A    between atoms: _400  and  _402
REMARK  158  A    between atoms: _402  and  _403
REMARK  159  A    between atoms: _402  and  _405
REMARK  160  A    between atoms: _405  and  _406
REMARK  161  A    between atoms: _412  and  _414
REMARK  162  A    between atoms: _414  and  _415
REMARK  163  A    between atoms: _414  and  _417
REMARK  164  A    between atoms: _417  and  _418
REMARK  165  A    between atoms: _421  and  _423
REMARK  166  A    between atoms: _423  and  _424
REMARK  167  A    between atoms: _423  and  _426
REMARK  168  A    between atoms: _426  and  _427
REMARK  169  A    between atoms: _429  and  _431
REMARK  170  A    between atoms: _431  and  _432
REMARK  171  A    between atoms: _431  and  _434
REMARK  172  A    between atoms: _434  and  _435
REMARK  173  A    between atoms: _438  and  _440
REMARK  174  A    between atoms: _440  and  _441
REMARK  175  A    between atoms: _440  and  _443
REMARK  176  A    between atoms: _443  and  _444
REMARK  177  A    between atoms: _450  and  _452
REMARK  178  A    between atoms: _452  and  _453
REMARK  179  A    between atoms: _452  and  _455
REMARK  180  A    between atoms: _455  and  _456
REMARK  181  A    between atoms: _456  and  _457
REMARK  182  A    between atoms: _457  and  _458
REMARK  183  A    between atoms: _467  and  _469
REMARK  184  A    between atoms: _469  and  _470
REMARK  185  A    between atoms: _469  and  _472
REMARK  186  A    between atoms: _472  and  _473
REMARK  187  A    between atoms: _479  and  _481
REMARK  188  A    between atoms: _481  and  _482
REMARK  189  A    between atoms: _481  and  _484
REMARK  190  A    between atoms: _484  and  _485
REMARK  191  A    between atoms: _487  and  _489
REMARK  192  A    between atoms: _489  and  _490
REMARK  193  A    between atoms: _489  and  _492
REMARK  194  A    between atoms: _492  and  _493
REMARK  195  A    between atoms: _498  and  _500
REMARK  196  A    between atoms: _500  and  _501
REMARK  197  A    between atoms: _500  and  _503
REMARK  198  A    between atoms: _503  and  _504
REMARK  199  A    between atoms: _504  and  _505
REMARK  200  A    between atoms: _508  and  _510
REMARK  201  A    between atoms: _510  and  _511
REMARK  202  A    between atoms: _513  and  _515
REMARK  203  A    between atoms: _515  and  _516
REMARK  204  A    between atoms: _515  and  _518
REMARK  205  A    between atoms: _518  and  _519
REMARK  206  A    between atoms: _521  and  _523
REMARK  207  A    between atoms: _523  and  _524
REMARK  208  A    between atoms: _523  and  _526
REMARK  209  A    between atoms: _526  and  _527
REMARK  210  A    between atoms: _533  and  _535
REMARK  211  A    between atoms: _535  and  _536
REMARK  212  A    between atoms: _535  and  _538
REMARK  213  A    between atoms: _538  and  _539
REMARK  214  A    between atoms: _545  and  _547
REMARK  215  A    between atoms: _547  and  _548
REMARK  216  A    between atoms: _547  and  _550
REMARK  217  A    between atoms: _550  and  _551
REMARK  218  A    between atoms: _554  and  _556
REMARK  219  A    between atoms: _556  and  _557
REMARK  220  A    between atoms: _556  and  _559
REMARK  221  A    between atoms: _559  and  _560
REMARK  222  A    between atoms: _563  and  _565
REMARK  223  A    between atoms: _565  and  _566
REMARK  224  A    between atoms: _565  and  _568
REMARK  225  A    between atoms: _568  and  _569
REMARK  226  A    between atoms: _574  and  _575
REMARK  227  A    between atoms: _577  and  _579
REMARK  228  A    between atoms: _579  and  _580
REMARK  229  A    between atoms: _582  and  _584
REMARK  230  A    between atoms: _584  and  _585
REMARK  231  A    between atoms: _588  and  _590
REMARK  232  A    between atoms: _590  and  _591
REMARK  233  A    between atoms: _590  and  _593
REMARK  234  A    between atoms: _593  and  _594
REMARK  235  A    between atoms: _597  and  _599
REMARK  236  A    between atoms: _599  and  _600
REMARK  237  A    between atoms: _599  and  _602
REMARK  238  A    between atoms: _602  and  _603
REMARK  239  A    between atoms: _605  and  _607
REMARK  240  A    between atoms: _607  and  _608
REMARK  241  A    between atoms: _607  and  _610
REMARK  242  A    between atoms: _613  and  _615
REMARK  243  A    between atoms: _615  and  _616
REMARK  244  A    between atoms: _615  and  _618
REMARK  245  A    between atoms: _618  and  _619
REMARK  246  A    between atoms: _624  and  _626
REMARK  247  A    between atoms: _626  and  _627
REMARK  248  A    between atoms: _626  and  _629
REMARK  249  A    between atoms: _629  and  _630
REMARK  250  A    between atoms: _640  and  _642
REMARK  251  A    between atoms: _642  and  _643
REMARK  252  A    between atoms: _642  and  _645
REMARK  253  A    between atoms: _645  and  _646
REMARK  254  A    between atoms: _646  and  _647
REMARK  255  A    between atoms: _649  and  _651
REMARK  256  A    between atoms: _651  and  _652
REMARK  257  A    between atoms: _651  and  _654
REMARK  258  A    between atoms: _654  and  _655
REMARK  259  A    between atoms: _658  and  _660
REMARK  260  A    between atoms: _660  and  _661
REMARK  261  A    between atoms: _660  and  _663
REMARK  262  A    between atoms: _663  and  _664
REMARK  263  A    between atoms: _669  and  _671
REMARK  264  A    between atoms: _671  and  _672
REMARK  265  A    between atoms: _674  and  _676
REMARK  266  A    between atoms: _676  and  _677
REMARK  267  A    between atoms: _676  and  _679
REMARK  268  A    between atoms: _679  and  _680
REMARK  269  A    between atoms: _685  and  _686
REMARK  270  A    between atoms: _688  and  _690
REMARK  271  A    between atoms: _690  and  _691
REMARK  272  A    between atoms: _690  and  _693
REMARK  273  A    between atoms: _693  and  _694
REMARK  274  A    between atoms: _694  and  _695
REMARK  275  A    between atoms: _698  and  _700
REMARK  276  A    between atoms: _700  and  _701
REMARK  277  A    between atoms: _700  and  _703
REMARK  278  A    between atoms: _703  and  _704
REMARK                            x       y       z     vdW  Elec       q    Type
REMARK                         _______ _______ _______ _____ _____    ______ ____
ROOT
ATOM      1  O   HOH     1       1.400  65.230  65.153  0.00  0.00    +0.000 OA
ENDROOT
TORSDOF 0
REMARK  Name = ../refined-set-2016/1h23/1h23_pocket.pdb
REMARK  278 active torsions:
REMARK  status: ('A' for Active; 'I' for Inactive)
REMARK    1  A    between atoms: _1  and  _3
REMARK    2  A    between atoms: _3  and  _4
REMARK    3  A    between atoms: _3  and  _6
REMARK    4  A    between atoms: _6  and  _7
REMARK    5  A    between atoms: _7  and  _8
REMARK    6  A    between atoms: _13  and  _15
REMARK    7  A    between atoms: _15  and  _16
REMARK    8  A    between atoms: _15  and  _18
REMARK    9  A    between atoms: _18  and  _19
REMARK   10  A    between atoms: _24  and  _25
REMARK   11  A    between atoms: _27  and  _29
REMARK   12  A    between atoms: _29  and  _30
REMARK   13  A    between atoms: _29  and  _32
REMARK   14  A    between atoms: _35  and  _37
REMARK   15  A    between atoms: _37  and  _38
REMARK   16  A    between atoms: _37  and  _40
REMARK   17  A    between atoms: _40  and  _41
REMARK   18  A    between atoms: _44  and  _46
REMARK   19  A    between atoms: _46  and  _47
REMARK   20  A    between atoms: _46  and  _49
REMARK   21  A    between atoms: _49  and  _50
REMARK   22  A    between atoms: _50  and  _51
REMARK   23  A    between atoms: _54  and  _56
REMARK   24  A    between atoms: _56  and  _57
REMARK   25  A    between atoms: _56  and  _59
REMARK   26  A    between atoms: _59  and  _60
REMARK   27  A    between atoms: _60  and  _61
REMARK   28  A    between atoms: _66  and  _68
REMARK   29  A    between atoms: _68  and  _69
REMARK   30  A    between atoms: _68  and  _71
REMARK   31  A    between atoms: _71  and  _72
REMARK   32  A    between atoms: _78  and  _80
REMARK   33  A    between atoms: _80  and  _81
REMARK   34  A    between atoms: _83  and  _85
REMARK   35  A    between atoms: _85  and  _86
REMARK   36  A    between atoms: _85  and  _88
REMARK   37  A    between atoms: _88  and  _89
REMARK   38  A    between atoms: _91  and  _93
REMARK   39  A    between atoms: _93  and  _94
REMARK   40  A    between atoms: _93  and  _96
REMARK   41  A    between atoms: _96  and  _97
REMARK   42  A    between atoms: _97  and  _98
REMARK   43  A    between atoms: _100  and  _102
REMARK   44  A    between atoms: _102  and  _103
REMARK   45  A    between atoms: _102  and  _105
REMARK   46  A    between atoms: _105  and  _106
REMARK   47  A    between atoms: _116  and  _118
REMARK   48  A    between atoms: _118  and  _119
REMARK   49  A    between atoms: _118  and  _121
REMARK   50  A    between atoms: _121  and  _122
REMARK   51  A    between atoms: _128  and  _129
REMARK   52  A    between atoms: _134  and  _136
REMARK   53  A    between atoms: _136  and  _137
REMARK   54  A    between atoms: _136  and  _139
REMARK   55  A    between atoms: _139  and  _140
REMARK   56  A    between atoms: _150  and  _152
REMARK   57  A    between atoms: _152  and  _153
REMARK   58  A    between atoms: _152  and  _155
REMARK   59  A    between atoms: _155  and  _156
REMARK   60  A    between atoms: _159  and  _161
REMARK   61  A    between atoms: _161  and  _162
REMARK   62  A    between atoms: _161  and  _164
REMARK   63  A    between atoms: _164  and  _165
REMARK   64  A    between atoms: _170  and  _171
REMARK   65  A    between atoms: _173  and  _175
REMARK   66  A    between atoms: _175  and  _176
REMARK   67  A    between atoms: _178  and  _180
REMARK   68  A    between atoms: _180  and  _181
REMARK   69  A    between atoms: _183  and  _185
REMARK   70  A    between atoms: _185  and  _186
REMARK   71  A    between atoms: _188  and  _190
REMARK   72  A    between atoms: _190  and  _191
REMARK   73  A    between atoms: _190  and  _193
REMARK   74  A    between atoms: _193  and  _194
REMARK   75  A    between atoms: _200  and  _202
REMARK   76  A    between atoms: _202  and  _203
REMARK   77  A    between atoms: _202  and  _205
REMARK   78  A    between atoms: _205  and  _206
REMARK   79  A    between atoms: _211  and  _212
REMARK   80  A    between atoms: _214  and  _216
REMARK   81  A    between atoms: _216  and  _217
REMARK   82  A    between atoms: _216  and  _219
REMARK   83  A    between atoms: _219  and  _220
REMARK   84  A    between atoms: _222  and  _224
REMARK   85  A    between atoms: _224  and  _225
REMARK   86  A    between atoms: _227  and  _229
REMARK   87  A    between atoms: _229  and  _230
REMARK   88  A    between atoms: _229  and  _232
REMARK   89  A    between atoms: _232  and  _233
REMARK   90  A    between atoms: _235  and  _237
REMARK   91  A    between atoms: _237  and  _238
REMARK   92  A    between atoms: _237  and  _240
REMARK   93  A    between atoms: _240  and  _241
REMARK   94  A    between atoms: _243  and  _245
REMARK   95  A    between atoms: _245  and  _246
REMARK   96  A    between atoms: _245  and  _248
REMARK   97  A    between atoms: _248  and  _249
REMARK   98  A    between atoms: _252  and  _254
REMARK   99  A    between atoms: _254  and  _255
REMARK  100  A    between atoms: _254  and  _257
REMARK  101  A    between atoms: _257  and  _258
REMARK  102  A    between atoms: _261  and  _263
REMARK  103  A    between atoms: _263  and  _264
REMARK  104  A    between atoms: _263  and  _266
REMARK  105  A    between atoms: _269  and  _271
REMARK  106  A    between atoms: _271  and  _272
REMARK  107  A    between atoms: _271  and  _274
REMARK  108  A    between atoms: _274  and  _275
REMARK  109  A    between atoms: _280  and  _281
REMARK  110  A    between atoms: _283  and  _285
REMARK  111  A    between atoms: _285  and  _286
REMARK  112  A    between atoms: _285  and  _288
REMARK  113  A    between atoms: _288  and  _289
REMARK  114  A    between atoms: _294  and  _295
REMARK  115  A    between atoms: _297  and  _299
REMARK  116  A    between atoms: _299  and  _300
REMARK  117  A    between atoms: _299  and  _302
REMARK  118  A    between atoms: _305  and  _307
REMARK  119  A    between atoms: _307  and  _308
REMARK  120  A    between atoms: _307  and  _310
REMARK  121  A    between atoms: _310  and  _311
REMARK  122  A    between atoms: _311  and  _312
REMARK  123  A    between atoms: _315  and  _317
REMARK  124  A    between atoms: _317  and  _318
REMARK  125  A    between atoms: _317  and  _320
REMARK  126  A    between atoms: _320  and  _321
REMARK  127  A    between atoms: _323  and  _325
REMARK  128  A    between atoms: _325  and  _326
REMARK  129  A    between atoms: _329  and  _331
REMARK  130  A    between atoms: _331  and  _332
REMARK  131  A    between atoms: _334  and  _336
REMARK  132  A    between atoms: _336  and  _337
REMARK  133  A    between atoms: _336  and  _339
REMARK  134  A    between atoms: _339  and  _340
REMARK  135  A    between atoms: _340  and  _341
REMARK  136  A    between atoms: _346  and  _348
REMARK  137  A    between atoms: _348  and  _349
REMARK  138  A    between atoms: _348  and  _351
REMARK  139  A    between atoms: _351  and  _352
REMARK  140  A    between atoms: _354  and  _356
REMARK  141  A    between atoms: _356  and  _357
REMARK  142  A    between atoms: _356  and  _359
REMARK  143  A    between atoms: _359  and  _360
REMARK  144  A    between atoms: _360  and  _361
REMARK  145  A    between atoms: _364  and  _366
REMARK  146  A    between atoms: _366  and  _367
REMARK  147  A    between atoms: _366  and  _369
REMARK  148  A    between atoms: _369  and  _370
REMARK  149  A    between atoms: _380  and  _382
REMARK  150  A    between atoms: _382  and  _383
REMARK  151  A    between atoms: _382  and  _385
REMARK  152  A    between atoms: _385  and  _386
REMARK  153  A    between atoms: _391  and  _393
REMARK  154  A    between atoms: _393  and  _394
REMARK  155  A    between atoms: _393  and  _396
REMARK  156  A    between atoms: _396  and  _397
REMARK  157  A    between atoms: _400  and  _402
REMARK  158  A    between atoms: _402  and  _403
REMARK  159  A    between atoms: _402  and  _405
REMARK  160  A    between atoms: _405  and  _406
REMARK  161  A    between atoms: _412  and  _414
REMARK  162  A    between atoms: _414  and  _415
REMARK  163  A    between atoms: _414  and  _417
REMARK  164  A    between atoms: _417  and  _418
REMARK  165  A    between atoms: _421  and  _423
REMARK  166  A    between atoms: _423  and  _424
REMARK  167  A    between atoms: _423  and  _426
REMARK  168  A    between atoms: _426  and  _427
REMARK  169  A    between atoms: _429  and  _431
REMARK  170  A    between atoms: _431  and  _432
REMARK  171  A    between atoms: _431  and  _434
REMARK  172  A    between atoms: _434  and  _435
REMARK  173  A    between atoms: _438  and  _440
REMARK  174  A    between atoms: _440  and  _441
REMARK  175  A    between atoms: _440  and  _443
REMARK  176  A    between atoms: _443  and  _444
REMARK  177  A    between atoms: _450  and  _452
REMARK  178  A    between atoms: _452  and  _453
REMARK  179  A    between atoms: _452  and  _455
REMARK  180  A    between atoms: _455  and  _456
REMARK  181  A    between atoms: _456  and  _457
REMARK  182  A    between atoms: _457  and  _458
REMARK  183  A    between atoms: _467  and  _469
REMARK  184  A    between atoms: _469  and  _470
REMARK  185  A    between atoms: _469  and  _472
REMARK  186  A    between atoms: _472  and  _473
REMARK  187  A    between atoms: _479  and  _481
REMARK  188  A    between atoms: _481  and  _482
REMARK  189  A    between atoms: _481  and  _484
REMARK  190  A    between atoms: _484  and  _485
REMARK  191  A    between atoms: _487  and  _489
REMARK  192  A    between atoms: _489  and  _490
REMARK  193  A    between atoms: _489  and  _492
REMARK  194  A    between atoms: _492  and  _493
REMARK  195  A    between atoms: _498  and  _500
REMARK  196  A    between atoms: _500  and  _501
REMARK  197  A    between atoms: _500  and  _503
REMARK  198  A    between atoms: _503  and  _504
REMARK  199  A    between atoms: _504  and  _505
REMARK  200  A    between atoms: _508  and  _510
REMARK  201  A    between atoms: _510  and  _511
REMARK  202  A    between atoms: _513  and  _515
REMARK  203  A    between atoms: _515  and  _516
REMARK  204  A    between atoms: _515  and  _518
REMARK  205  A    between atoms: _518  and  _519
REMARK  206  A    between atoms: _521  and  _523
REMARK  207  A    between atoms: _523  and  _524
REMARK  208  A    between atoms: _523  and  _526
REMARK  209  A    between atoms: _526  and  _527
REMARK  210  A    between atoms: _533  and  _535
REMARK  211  A    between atoms: _535  and  _536
REMARK  212  A    between atoms: _535  and  _538
REMARK  213  A    between atoms: _538  and  _539
REMARK  214  A    between atoms: _545  and  _547
REMARK  215  A    between atoms: _547  and  _548
REMARK  216  A    between atoms: _547  and  _550
REMARK  217  A    between atoms: _550  and  _551
REMARK  218  A    between atoms: _554  and  _556
REMARK  219  A    between atoms: _556  and  _557
REMARK  220  A    between atoms: _556  and  _559
REMARK  221  A    between atoms: _559  and  _560
REMARK  222  A    between atoms: _563  and  _565
REMARK  223  A    between atoms: _565  and  _566
REMARK  224  A    between atoms: _565  and  _568
REMARK  225  A    between atoms: _568  and  _569
REMARK  226  A    between atoms: _574  and  _575
REMARK  227  A    between atoms: _577  and  _579
REMARK  228  A    between atoms: _579  and  _580
REMARK  229  A    between atoms: _582  and  _584
REMARK  230  A    between atoms: _584  and  _585
REMARK  231  A    between atoms: _588  and  _590
REMARK  232  A    between atoms: _590  and  _591
REMARK  233  A    between atoms: _590  and  _593
REMARK  234  A    between atoms: _593  and  _594
REMARK  235  A    between atoms: _597  and  _599
REMARK  236  A    between atoms: _599  and  _600
REMARK  237  A    between atoms: _599  and  _602
REMARK  238  A    between atoms: _602  and  _603
REMARK  239  A    between atoms: _605  and  _607
REMARK  240  A    between atoms: _607  and  _608
REMARK  241  A    between atoms: _607  and  _610
REMARK  242  A    between atoms: _613  and  _615
REMARK  243  A    between atoms: _615  and  _616
REMARK  244  A    between atoms: _615  and  _618
REMARK  245  A    between atoms: _618  and  _619
REMARK  246  A    between atoms: _624  and  _626
REMARK  247  A    between atoms: _626  and  _627
REMARK  248  A    between atoms: _626  and  _629
REMARK  249  A    between atoms: _629  and  _630
REMARK  250  A    between atoms: _640  and  _642
REMARK  251  A    between atoms: _642  and  _643
REMARK  252  A    between atoms: _642  and  _645
REMARK  253  A    between atoms: _645  and  _646
REMARK  254  A    between atoms: _646  and  _647
REMARK  255  A    between atoms: _649  and  _651
REMARK  256  A    between atoms: _651  and  _652
REMARK  257  A    between atoms: _651  and  _654
REMARK  258  A    between atoms: _654  and  _655
REMARK  259  A    between atoms: _658  and  _660
REMARK  260  A    between atoms: _660  and  _661
REMARK  261  A    between atoms: _660  and  _663
REMARK  262  A    between atoms: _663  and  _664
REMARK  263  A    between atoms: _669  and  _671
REMARK  264  A    between atoms: _671  and  _672
REMARK  265  A    between atoms: _674  and  _676
REMARK  266  A    between atoms: _676  and  _677
REMARK  267  A    between atoms: _676  and  _679
REMARK  268  A    between atoms: _679  and  _680
REMARK  269  A    between atoms: _685  and  _686
REMARK  270  A    between atoms: _688  and  _690
REMARK  271  A    between atoms: _690  and  _691
REMARK  272  A    between atoms: _690  and  _693
REMARK  273  A    between atoms: _693  and  _694
REMARK  274  A    between atoms: _694  and  _695
REMARK  275  A    between atoms: _698  and  _700
REMARK  276  A    between atoms: _700  and  _701
REMARK  277  A    between atoms: _700  and  _703
REMARK  278  A    between atoms: _703  and  _704
REMARK                            x       y       z     vdW  Elec       q    Type
REMARK                         _______ _______ _______ _____ _____    ______ ____
ROOT
ATOM      1  O   HOH     1      -0.304  65.872  68.403  0.00  0.00    +0.000 OA
ENDROOT
TORSDOF 0
REMARK  Name = ../refined-set-2016/1h23/1h23_pocket.pdb
REMARK  278 active torsions:
REMARK  status: ('A' for Active; 'I' for Inactive)
REMARK    1  A    between atoms: _1  and  _3
REMARK    2  A    between atoms: _3  and  _4
REMARK    3  A    between atoms: _3  and  _6
REMARK    4  A    between atoms: _6  and  _7
REMARK    5  A    between atoms: _7  and  _8
REMARK    6  A    between atoms: _13  and  _15
REMARK    7  A    between atoms: _15  and  _16
REMARK    8  A    between atoms: _15  and  _18
REMARK    9  A    between atoms: _18  and  _19
REMARK   10  A    between atoms: _24  and  _25
REMARK   11  A    between atoms: _27  and  _29
REMARK   12  A    between atoms: _29  and  _30
REMARK   13  A    between atoms: _29  and  _32
REMARK   14  A    between atoms: _35  and  _37
REMARK   15  A    between atoms: _37  and  _38
REMARK   16  A    between atoms: _37  and  _40
REMARK   17  A    between atoms: _40  and  _41
REMARK   18  A    between atoms: _44  and  _46
REMARK   19  A    between atoms: _46  and  _47
REMARK   20  A    between atoms: _46  and  _49
REMARK   21  A    between atoms: _49  and  _50
REMARK   22  A    between atoms: _50  and  _51
REMARK   23  A    between atoms: _54  and  _56
REMARK   24  A    between atoms: _56  and  _57
REMARK   25  A    between atoms: _56  and  _59
REMARK   26  A    between atoms: _59  and  _60
REMARK   27  A    between atoms: _60  and  _61
REMARK   28  A    between atoms: _66  and  _68
REMARK   29  A    between atoms: _68  and  _69
REMARK   30  A    between atoms: _68  and  _71
REMARK   31  A    between atoms: _71  and  _72
REMARK   32  A    between atoms: _78  and  _80
REMARK   33  A    between atoms: _80  and  _81
REMARK   34  A    between atoms: _83  and  _85
REMARK   35  A    between atoms: _85  and  _86
REMARK   36  A    between atoms: _85  and  _88
REMARK   37  A    between atoms: _88  and  _89
REMARK   38  A    between atoms: _91  and  _93
REMARK   39  A    between atoms: _93  and  _94
REMARK   40  A    between atoms: _93  and  _96
REMARK   41  A    between atoms: _96  and  _97
REMARK   42  A    between atoms: _97  and  _98
REMARK   43  A    between atoms: _100  and  _102
REMARK   44  A    between atoms: _102  and  _103
REMARK   45  A    between atoms: _102  and  _105
REMARK   46  A    between atoms: _105  and  _106
REMARK   47  A    between atoms: _116  and  _118
REMARK   48  A    between atoms: _118  and  _119
REMARK   49  A    between atoms: _118  and  _121
REMARK   50  A    between atoms: _121  and  _122
REMARK   51  A    between atoms: _128  and  _129
REMARK   52  A    between atoms: _134  and  _136
REMARK   53  A    between atoms: _136  and  _137
REMARK   54  A    between atoms: _136  and  _139
REMARK   55  A    between atoms: _139  and  _140
REMARK   56  A    between atoms: _150  and  _152
REMARK   57  A    between atoms: _152  and  _153
REMARK   58  A    between atoms: _152  and  _155
REMARK   59  A    between atoms: _155  and  _156
REMARK   60  A    between atoms: _159  and  _161
REMARK   61  A    between atoms: _161  and  _162
REMARK   62  A    between atoms: _161  and  _164
REMARK   63  A    between atoms: _164  and  _165
REMARK   64  A    between atoms: _170  and  _171
REMARK   65  A    between atoms: _173  and  _175
REMARK   66  A    between atoms: _175  and  _176
REMARK   67  A    between atoms: _178  and  _180
REMARK   68  A    between atoms: _180  and  _181
REMARK   69  A    between atoms: _183  and  _185
REMARK   70  A    between atoms: _185  and  _186
REMARK   71  A    between atoms: _188  and  _190
REMARK   72  A    between atoms: _190  and  _191
REMARK   73  A    between atoms: _190  and  _193
REMARK   74  A    between atoms: _193  and  _194
REMARK   75  A    between atoms: _200  and  _202
REMARK   76  A    between atoms: _202  and  _203
REMARK   77  A    between atoms: _202  and  _205
REMARK   78  A    between atoms: _205  and  _206
REMARK   79  A    between atoms: _211  and  _212
REMARK   80  A    between atoms: _214  and  _216
REMARK   81  A    between atoms: _216  and  _217
REMARK   82  A    between atoms: _216  and  _219
REMARK   83  A    between atoms: _219  and  _220
REMARK   84  A    between atoms: _222  and  _224
REMARK   85  A    between atoms: _224  and  _225
REMARK   86  A    between atoms: _227  and  _229
REMARK   87  A    between atoms: _229  and  _230
REMARK   88  A    between atoms: _229  and  _232
REMARK   89  A    between atoms: _232  and  _233
REMARK   90  A    between atoms: _235  and  _237
REMARK   91  A    between atoms: _237  and  _238
REMARK   92  A    between atoms: _237  and  _240
REMARK   93  A    between atoms: _240  and  _241
REMARK   94  A    between atoms: _243  and  _245
REMARK   95  A    between atoms: _245  and  _246
REMARK   96  A    between atoms: _245  and  _248
REMARK   97  A    between atoms: _248  and  _249
REMARK   98  A    between atoms: _252  and  _254
REMARK   99  A    between atoms: _254  and  _255
REMARK  100  A    between atoms: _254  and  _257
REMARK  101  A    between atoms: _257  and  _258
REMARK  102  A    between atoms: _261  and  _263
REMARK  103  A    between atoms: _263  and  _264
REMARK  104  A    between atoms: _263  and  _266
REMARK  105  A    between atoms: _269  and  _271
REMARK  106  A    between atoms: _271  and  _272
REMARK  107  A    between atoms: _271  and  _274
REMARK  108  A    between atoms: _274  and  _275
REMARK  109  A    between atoms: _280  and  _281
REMARK  110  A    between atoms: _283  and  _285
REMARK  111  A    between atoms: _285  and  _286
REMARK  112  A    between atoms: _285  and  _288
REMARK  113  A    between atoms: _288  and  _289
REMARK  114  A    between atoms: _294  and  _295
REMARK  115  A    between atoms: _297  and  _299
REMARK  116  A    between atoms: _299  and  _300
REMARK  117  A    between atoms: _299  and  _302
REMARK  118  A    between atoms: _305  and  _307
REMARK  119  A    between atoms: _307  and  _308
REMARK  120  A    between atoms: _307  and  _310
REMARK  121  A    between atoms: _310  and  _311
REMARK  122  A    between atoms: _311  and  _312
REMARK  123  A    between atoms: _315  and  _317
REMARK  124  A    between atoms: _317  and  _318
REMARK  125  A    between atoms: _317  and  _320
REMARK  126  A    between atoms: _320  and  _321
REMARK  127  A    between atoms: _323  and  _325
REMARK  128  A    between atoms: _325  and  _326
REMARK  129  A    between atoms: _329  and  _331
REMARK  130  A    between atoms: _331  and  _332
REMARK  131  A    between atoms: _334  and  _336
REMARK  132  A    between atoms: _336  and  _337
REMARK  133  A    between atoms: _336  and  _339
REMARK  134  A    between atoms: _339  and  _340
REMARK  135  A    between atoms: _340  and  _341
REMARK  136  A    between atoms: _346  and  _348
REMARK  137  A    between atoms: _348  and  _349
REMARK  138  A    between atoms: _348  and  _351
REMARK  139  A    between atoms: _351  and  _352
REMARK  140  A    between atoms: _354  and  _356
REMARK  141  A    between atoms: _356  and  _357
REMARK  142  A    between atoms: _356  and  _359
REMARK  143  A    between atoms: _359  and  _360
REMARK  144  A    between atoms: _360  and  _361
REMARK  145  A    between atoms: _364  and  _366
REMARK  146  A    between atoms: _366  and  _367
REMARK  147  A    between atoms: _366  and  _369
REMARK  148  A    between atoms: _369  and  _370
REMARK  149  A    between atoms: _380  and  _382
REMARK  150  A    between atoms: _382  and  _383
REMARK  151  A    between atoms: _382  and  _385
REMARK  152  A    between atoms: _385  and  _386
REMARK  153  A    between atoms: _391  and  _393
REMARK  154  A    between atoms: _393  and  _394
REMARK  155  A    between atoms: _393  and  _396
REMARK  156  A    between atoms: _396  and  _397
REMARK  157  A    between atoms: _400  and  _402
REMARK  158  A    between atoms: _402  and  _403
REMARK  159  A    between atoms: _402  and  _405
REMARK  160  A    between atoms: _405  and  _406
REMARK  161  A    between atoms: _412  and  _414
REMARK  162  A    between atoms: _414  and  _415
REMARK  163  A    between atoms: _414  and  _417
REMARK  164  A    between atoms: _417  and  _418
REMARK  165  A    between atoms: _421  and  _423
REMARK  166  A    between atoms: _423  and  _424
REMARK  167  A    between atoms: _423  and  _426
REMARK  168  A    between atoms: _426  and  _427
REMARK  169  A    between atoms: _429  and  _431
REMARK  170  A    between atoms: _431  and  _432
REMARK  171  A    between atoms: _431  and  _434
REMARK  172  A    between atoms: _434  and  _435
REMARK  173  A    between atoms: _438  and  _440
REMARK  174  A    between atoms: _440  and  _441
REMARK  175  A    between atoms: _440  and  _443
REMARK  176  A    between atoms: _443  and  _444
REMARK  177  A    between atoms: _450  and  _452
REMARK  178  A    between atoms: _452  and  _453
REMARK  179  A    between atoms: _452  and  _455
REMARK  180  A    between atoms: _455  and  _456
REMARK  181  A    between atoms: _456  and  _457
REMARK  182  A    between atoms: _457  and  _458
REMARK  183  A    between atoms: _467  and  _469
REMARK  184  A    between atoms: _469  and  _470
REMARK  185  A    between atoms: _469  and  _472
REMARK  186  A    between atoms: _472  and  _473
REMARK  187  A    between atoms: _479  and  _481
REMARK  188  A    between atoms: _481  and  _482
REMARK  189  A    between atoms: _481  and  _484
REMARK  190  A    between atoms: _484  and  _485
REMARK  191  A    between atoms: _487  and  _489
REMARK  192  A    between atoms: _489  and  _490
REMARK  193  A    between atoms: _489  and  _492
REMARK  194  A    between atoms: _492  and  _493
REMARK  195  A    between atoms: _498  and  _500
REMARK  196  A    between atoms: _500  and  _501
REMARK  197  A    between atoms: _500  and  _503
REMARK  198  A    between atoms: _503  and  _504
REMARK  199  A    between atoms: _504  and  _505
REMARK  200  A    between atoms: _508  and  _510
REMARK  201  A    between atoms: _510  and  _511
REMARK  202  A    between atoms: _513  and  _515
REMARK  203  A    between atoms: _515  and  _516
REMARK  204  A    between atoms: _515  and  _518
REMARK  205  A    between atoms: _518  and  _519
REMARK  206  A    between atoms: _521  and  _523
REMARK  207  A    between atoms: _523  and  _524
REMARK  208  A    between atoms: _523  and  _526
REMARK  209  A    between atoms: _526  and  _527
REMARK  210  A    between atoms: _533  and  _535
REMARK  211  A    between atoms: _535  and  _536
REMARK  212  A    between atoms: _535  and  _538
REMARK  213  A    between atoms: _538  and  _539
REMARK  214  A    between atoms: _545  and  _547
REMARK  215  A    between atoms: _547  and  _548
REMARK  216  A    between atoms: _547  and  _550
REMARK  217  A    between atoms: _550  and  _551
REMARK  218  A    between atoms: _554  and  _556
REMARK  219  A    between atoms: _556  and  _557
REMARK  220  A    between atoms: _556  and  _559
REMARK  221  A    between atoms: _559  and  _560
REMARK  222  A    between atoms: _563  and  _565
REMARK  223  A    between atoms: _565  and  _566
REMARK  224  A    between atoms: _565  and  _568
REMARK  225  A    between atoms: _568  and  _569
REMARK  226  A    between atoms: _574  and  _575
REMARK  227  A    between atoms: _577  and  _579
REMARK  228  A    between atoms: _579  and  _580
REMARK  229  A    between atoms: _582  and  _584
REMARK  230  A    between atoms: _584  and  _585
REMARK  231  A    between atoms: _588  and  _590
REMARK  232  A    between atoms: _590  and  _591
REMARK  233  A    between atoms: _590  and  _593
REMARK  234  A    between atoms: _593  and  _594
REMARK  235  A    between atoms: _597  and  _599
REMARK  236  A    between atoms: _599  and  _600
REMARK  237  A    between atoms: _599  and  _602
REMARK  238  A    between atoms: _602  and  _603
REMARK  239  A    between atoms: _605  and  _607
REMARK  240  A    between atoms: _607  and  _608
REMARK  241  A    between atoms: _607  and  _610
REMARK  242  A    between atoms: _613  and  _615
REMARK  243  A    between atoms: _615  and  _616
REMARK  244  A    between atoms: _615  and  _618
REMARK  245  A    between atoms: _618  and  _619
REMARK  246  A    between atoms: _624  and  _626
REMARK  247  A    between atoms: _626  and  _627
REMARK  248  A    between atoms: _626  and  _629
REMARK  249  A    between atoms: _629  and  _630
REMARK  250  A    between atoms: _640  and  _642
REMARK  251  A    between atoms: _642  and  _643
REMARK  252  A    between atoms: _642  and  _645
REMARK  253  A    between atoms: _645  and  _646
REMARK  254  A    between atoms: _646  and  _647
REMARK  255  A    between atoms: _649  and  _651
REMARK  256  A    between atoms: _651  and  _652
REMARK  257  A    between atoms: _651  and  _654
REMARK  258  A    between atoms: _654  and  _655
REMARK  259  A    between atoms: _658  and  _660
REMARK  260  A    between atoms: _660  and  _661
REMARK  261  A    between atoms: _660  and  _663
REMARK  262  A    between atoms: _663  and  _664
REMARK  263  A    between atoms: _669  and  _671
REMARK  264  A    between atoms: _671  and  _672
REMARK  265  A    between atoms: _674  and  _676
REMARK  266  A    between atoms: _676  and  _677
REMARK  267  A    between atoms: _676  and  _679
REMARK  268  A    between atoms: _679  and  _680
REMARK  269  A    between atoms: _685  and  _686
REMARK  270  A    between atoms: _688  and  _690
REMARK  271  A    between atoms: _690  and  _691
REMARK  272  A    between atoms: _690  and  _693
REMARK  273  A    between atoms: _693  and  _694
REMARK  274  A    between atoms: _694  and  _695
REMARK  275  A    between atoms: _698  and  _700
REMARK  276  A    between atoms: _700  and  _701
REMARK  277  A    between atoms: _700  and  _703
REMARK  278  A    between atoms: _703  and  _704
REMARK                            x       y       z     vdW  Elec       q    Type
REMARK                         _______ _______ _______ _____ _____    ______ ____
ROOT
ATOM      1  O   HOH     1      -4.046  70.049  62.567  0.00  0.00    +0.000 OA
ENDROOT
TORSDOF 0
REMARK  Name = ../refined-set-2016/1h23/1h23_pocket.pdb
REMARK  278 active torsions:
REMARK  status: ('A' for Active; 'I' for Inactive)
REMARK    1  A    between atoms: _1  and  _3
REMARK    2  A    between atoms: _3  and  _4
REMARK    3  A    between atoms: _3  and  _6
REMARK    4  A    between atoms: _6  and  _7
REMARK    5  A    between atoms: _7  and  _8
REMARK    6  A    between atoms: _13  and  _15
REMARK    7  A    between atoms: _15  and  _16
REMARK    8  A    between atoms: _15  and  _18
REMARK    9  A    between atoms: _18  and  _19
REMARK   10  A    between atoms: _24  and  _25
REMARK   11  A    between atoms: _27  and  _29
REMARK   12  A    between atoms: _29  and  _30
REMARK   13  A    between atoms: _29  and  _32
REMARK   14  A    between atoms: _35  and  _37
REMARK   15  A    between atoms: _37  and  _38
REMARK   16  A    between atoms: _37  and  _40
REMARK   17  A    between atoms: _40  and  _41
REMARK   18  A    between atoms: _44  and  _46
REMARK   19  A    between atoms: _46  and  _47
REMARK   20  A    between atoms: _46  and  _49
REMARK   21  A    between atoms: _49  and  _50
REMARK   22  A    between atoms: _50  and  _51
REMARK   23  A    between atoms: _54  and  _56
REMARK   24  A    between atoms: _56  and  _57
REMARK   25  A    between atoms: _56  and  _59
REMARK   26  A    between atoms: _59  and  _60
REMARK   27  A    between atoms: _60  and  _61
REMARK   28  A    between atoms: _66  and  _68
REMARK   29  A    between atoms: _68  and  _69
REMARK   30  A    between atoms: _68  and  _71
REMARK   31  A    between atoms: _71  and  _72
REMARK   32  A    between atoms: _78  and  _80
REMARK   33  A    between atoms: _80  and  _81
REMARK   34  A    between atoms: _83  and  _85
REMARK   35  A    between atoms: _85  and  _86
REMARK   36  A    between atoms: _85  and  _88
REMARK   37  A    between atoms: _88  and  _89
REMARK   38  A    between atoms: _91  and  _93
REMARK   39  A    between atoms: _93  and  _94
REMARK   40  A    between atoms: _93  and  _96
REMARK   41  A    between atoms: _96  and  _97
REMARK   42  A    between atoms: _97  and  _98
REMARK   43  A    between atoms: _100  and  _102
REMARK   44  A    between atoms: _102  and  _103
REMARK   45  A    between atoms: _102  and  _105
REMARK   46  A    between atoms: _105  and  _106
REMARK   47  A    between atoms: _116  and  _118
REMARK   48  A    between atoms: _118  and  _119
REMARK   49  A    between atoms: _118  and  _121
REMARK   50  A    between atoms: _121  and  _122
REMARK   51  A    between atoms: _128  and  _129
REMARK   52  A    between atoms: _134  and  _136
REMARK   53  A    between atoms: _136  and  _137
REMARK   54  A    between atoms: _136  and  _139
REMARK   55  A    between atoms: _139  and  _140
REMARK   56  A    between atoms: _150  and  _152
REMARK   57  A    between atoms: _152  and  _153
REMARK   58  A    between atoms: _152  and  _155
REMARK   59  A    between atoms: _155  and  _156
REMARK   60  A    between atoms: _159  and  _161
REMARK   61  A    between atoms: _161  and  _162
REMARK   62  A    between atoms: _161  and  _164
REMARK   63  A    between atoms: _164  and  _165
REMARK   64  A    between atoms: _170  and  _171
REMARK   65  A    between atoms: _173  and  _175
REMARK   66  A    between atoms: _175  and  _176
REMARK   67  A    between atoms: _178  and  _180
REMARK   68  A    between atoms: _180  and  _181
REMARK   69  A    between atoms: _183  and  _185
REMARK   70  A    between atoms: _185  and  _186
REMARK   71  A    between atoms: _188  and  _190
REMARK   72  A    between atoms: _190  and  _191
REMARK   73  A    between atoms: _190  and  _193
REMARK   74  A    between atoms: _193  and  _194
REMARK   75  A    between atoms: _200  and  _202
REMARK   76  A    between atoms: _202  and  _203
REMARK   77  A    between atoms: _202  and  _205
REMARK   78  A    between atoms: _205  and  _206
REMARK   79  A    between atoms: _211  and  _212
REMARK   80  A    between atoms: _214  and  _216
REMARK   81  A    between atoms: _216  and  _217
REMARK   82  A    between atoms: _216  and  _219
REMARK   83  A    between atoms: _219  and  _220
REMARK   84  A    between atoms: _222  and  _224
REMARK   85  A    between atoms: _224  and  _225
REMARK   86  A    between atoms: _227  and  _229
REMARK   87  A    between atoms: _229  and  _230
REMARK   88  A    between atoms: _229  and  _232
REMARK   89  A    between atoms: _232  and  _233
REMARK   90  A    between atoms: _235  and  _237
REMARK   91  A    between atoms: _237  and  _238
REMARK   92  A    between atoms: _237  and  _240
REMARK   93  A    between atoms: _240  and  _241
REMARK   94  A    between atoms: _243  and  _245
REMARK   95  A    between atoms: _245  and  _246
REMARK   96  A    between atoms: _245  and  _248
REMARK   97  A    between atoms: _248  and  _249
REMARK   98  A    between atoms: _252  and  _254
REMARK   99  A    between atoms: _254  and  _255
REMARK  100  A    between atoms: _254  and  _257
REMARK  101  A    between atoms: _257  and  _258
REMARK  102  A    between atoms: _261  and  _263
REMARK  103  A    between atoms: _263  and  _264
REMARK  104  A    between atoms: _263  and  _266
REMARK  105  A    between atoms: _269  and  _271
REMARK  106  A    between atoms: _271  and  _272
REMARK  107  A    between atoms: _271  and  _274
REMARK  108  A    between atoms: _274  and  _275
REMARK  109  A    between atoms: _280  and  _281
REMARK  110  A    between atoms: _283  and  _285
REMARK  111  A    between atoms: _285  and  _286
REMARK  112  A    between atoms: _285  and  _288
REMARK  113  A    between atoms: _288  and  _289
REMARK  114  A    between atoms: _294  and  _295
REMARK  115  A    between atoms: _297  and  _299
REMARK  116  A    between atoms: _299  and  _300
REMARK  117  A    between atoms: _299  and  _302
REMARK  118  A    between atoms: _305  and  _307
REMARK  119  A    between atoms: _307  and  _308
REMARK  120  A    between atoms: _307  and  _310
REMARK  121  A    between atoms: _310  and  _311
REMARK  122  A    between atoms: _311  and  _312
REMARK  123  A    between atoms: _315  and  _317
REMARK  124  A    between atoms: _317  and  _318
REMARK  125  A    between atoms: _317  and  _320
REMARK  126  A    between atoms: _320  and  _321
REMARK  127  A    between atoms: _323  and  _325
REMARK  128  A    between atoms: _325  and  _326
REMARK  129  A    between atoms: _329  and  _331
REMARK  130  A    between atoms: _331  and  _332
REMARK  131  A    between atoms: _334  and  _336
REMARK  132  A    between atoms: _336  and  _337
REMARK  133  A    between atoms: _336  and  _339
REMARK  134  A    between atoms: _339  and  _340
REMARK  135  A    between atoms: _340  and  _341
REMARK  136  A    between atoms: _346  and  _348
REMARK  137  A    between atoms: _348  and  _349
REMARK  138  A    between atoms: _348  and  _351
REMARK  139  A    between atoms: _351  and  _352
REMARK  140  A    between atoms: _354  and  _356
REMARK  141  A    between atoms: _356  and  _357
REMARK  142  A    between atoms: _356  and  _359
REMARK  143  A    between atoms: _359  and  _360
REMARK  144  A    between atoms: _360  and  _361
REMARK  145  A    between atoms: _364  and  _366
REMARK  146  A    between atoms: _366  and  _367
REMARK  147  A    between atoms: _366  and  _369
REMARK  148  A    between atoms: _369  and  _370
REMARK  149  A    between atoms: _380  and  _382
REMARK  150  A    between atoms: _382  and  _383
REMARK  151  A    between atoms: _382  and  _385
REMARK  152  A    between atoms: _385  and  _386
REMARK  153  A    between atoms: _391  and  _393
REMARK  154  A    between atoms: _393  and  _394
REMARK  155  A    between atoms: _393  and  _396
REMARK  156  A    between atoms: _396  and  _397
REMARK  157  A    between atoms: _400  and  _402
REMARK  158  A    between atoms: _402  and  _403
REMARK  159  A    between atoms: _402  and  _405
REMARK  160  A    between atoms: _405  and  _406
REMARK  161  A    between atoms: _412  and  _414
REMARK  162  A    between atoms: _414  and  _415
REMARK  163  A    between atoms: _414  and  _417
REMARK  164  A    between atoms: _417  and  _418
REMARK  165  A    between atoms: _421  and  _423
REMARK  166  A    between atoms: _423  and  _424
REMARK  167  A    between atoms: _423  and  _426
REMARK  168  A    between atoms: _426  and  _427
REMARK  169  A    between atoms: _429  and  _431
REMARK  170  A    between atoms: _431  and  _432
REMARK  171  A    between atoms: _431  and  _434
REMARK  172  A    between atoms: _434  and  _435
REMARK  173  A    between atoms: _438  and  _440
REMARK  174  A    between atoms: _440  and  _441
REMARK  175  A    between atoms: _440  and  _443
REMARK  176  A    between atoms: _443  and  _444
REMARK  177  A    between atoms: _450  and  _452
REMARK  178  A    between atoms: _452  and  _453
REMARK  179  A    between atoms: _452  and  _455
REMARK  180  A    between atoms: _455  and  _456
REMARK  181  A    between atoms: _456  and  _457
REMARK  182  A    between atoms: _457  and  _458
REMARK  183  A    between atoms: _467  and  _469
REMARK  184  A    between atoms: _469  and  _470
REMARK  185  A    between atoms: _469  and  _472
REMARK  186  A    between atoms: _472  and  _473
REMARK  187  A    between atoms: _479  and  _481
REMARK  188  A    between atoms: _481  and  _482
REMARK  189  A    between atoms: _481  and  _484
REMARK  190  A    between atoms: _484  and  _485
REMARK  191  A    between atoms: _487  and  _489
REMARK  192  A    between atoms: _489  and  _490
REMARK  193  A    between atoms: _489  and  _492
REMARK  194  A    between atoms: _492  and  _493
REMARK  195  A    between atoms: _498  and  _500
REMARK  196  A    between atoms: _500  and  _501
REMARK  197  A    between atoms: _500  and  _503
REMARK  198  A    between atoms: _503  and  _504
REMARK  199  A    between atoms: _504  and  _505
REMARK  200  A    between atoms: _508  and  _510
REMARK  201  A    between atoms: _510  and  _511
REMARK  202  A    between atoms: _513  and  _515
REMARK  203  A    between atoms: _515  and  _516
REMARK  204  A    between atoms: _515  and  _518
REMARK  205  A    between atoms: _518  and  _519
REMARK  206  A    between atoms: _521  and  _523
REMARK  207  A    between atoms: _523  and  _524
REMARK  208  A    between atoms: _523  and  _526
REMARK  209  A    between atoms: _526  and  _527
REMARK  210  A    between atoms: _533  and  _535
REMARK  211  A    between atoms: _535  and  _536
REMARK  212  A    between atoms: _535  and  _538
REMARK  213  A    between atoms: _538  and  _539
REMARK  214  A    between atoms: _545  and  _547
REMARK  215  A    between atoms: _547  and  _548
REMARK  216  A    between atoms: _547  and  _550
REMARK  217  A    between atoms: _550  and  _551
REMARK  218  A    between atoms: _554  and  _556
REMARK  219  A    between atoms: _556  and  _557
REMARK  220  A    between atoms: _556  and  _559
REMARK  221  A    between atoms: _559  and  _560
REMARK  222  A    between atoms: _563  and  _565
REMARK  223  A    between atoms: _565  and  _566
REMARK  224  A    between atoms: _565  and  _568
REMARK  225  A    between atoms: _568  and  _569
REMARK  226  A    between atoms: _574  and  _575
REMARK  227  A    between atoms: _577  and  _579
REMARK  228  A    between atoms: _579  and  _580
REMARK  229  A    between atoms: _582  and  _584
REMARK  230  A    between atoms: _584  and  _585
REMARK  231  A    between atoms: _588  and  _590
REMARK  232  A    between atoms: _590  and  _591
REMARK  233  A    between atoms: _590  and  _593
REMARK  234  A    between atoms: _593  and  _594
REMARK  235  A    between atoms: _597  and  _599
REMARK  236  A    between atoms: _599  and  _600
REMARK  237  A    between atoms: _599  and  _602
REMARK  238  A    between atoms: _602  and  _603
REMARK  239  A    between atoms: _605  and  _607
REMARK  240  A    between atoms: _607  and  _608
REMARK  241  A    between atoms: _607  and  _610
REMARK  242  A    between atoms: _613  and  _615
REMARK  243  A    between atoms: _615  and  _616
REMARK  244  A    between atoms: _615  and  _618
REMARK  245  A    between atoms: _618  and  _619
REMARK  246  A    between atoms: _624  and  _626
REMARK  247  A    between atoms: _626  and  _627
REMARK  248  A    between atoms: _626  and  _629
REMARK  249  A    between atoms: _629  and  _630
REMARK  250  A    between atoms: _640  and  _642
REMARK  251  A    between atoms: _642  and  _643
REMARK  252  A    between atoms: _642  and  _645
REMARK  253  A    between atoms: _645  and  _646
REMARK  254  A    between atoms: _646  and  _647
REMARK  255  A    between atoms: _649  and  _651
REMARK  256  A    between atoms: _651  and  _652
REMARK  257  A    between atoms: _651  and  _654
REMARK  258  A    between atoms: _654  and  _655
REMARK  259  A    between atoms: _658  and  _660
REMARK  260  A    between atoms: _660  and  _661
REMARK  261  A    between atoms: _660  and  _663
REMARK  262  A    between atoms: _663  and  _664
REMARK  263  A    between atoms: _669  and  _671
REMARK  264  A    between atoms: _671  and  _672
REMARK  265  A    between atoms: _674  and  _676
REMARK  266  A    between atoms: _676  and  _677
REMARK  267  A    between atoms: _676  and  _679
REMARK  268  A    between atoms: _679  and  _680
REMARK  269  A    between atoms: _685  and  _686
REMARK  270  A    between atoms: _688  and  _690
REMARK  271  A    between atoms: _690  and  _691
REMARK  272  A    between atoms: _690  and  _693
REMARK  273  A    between atoms: _693  and  _694
REMARK  274  A    between atoms: _694  and  _695
REMARK  275  A    between atoms: _698  and  _700
REMARK  276  A    between atoms: _700  and  _701
REMARK  277  A    between atoms: _700  and  _703
REMARK  278  A    between atoms: _703  and  _704
REMARK                            x       y       z     vdW  Elec       q    Type
REMARK                         _______ _______ _______ _____ _____    ______ ____
ROOT
ATOM      1  O   HOH     1      -1.766  69.657  53.174  0.00  0.00    +0.000 OA
ENDROOT
TORSDOF 0
REMARK  Name = ../refined-set-2016/1h23/1h23_pocket.pdb
REMARK  278 active torsions:
REMARK  status: ('A' for Active; 'I' for Inactive)
REMARK    1  A    between atoms: _1  and  _3
REMARK    2  A    between atoms: _3  and  _4
REMARK    3  A    between atoms: _3  and  _6
REMARK    4  A    between atoms: _6  and  _7
REMARK    5  A    between atoms: _7  and  _8
REMARK    6  A    between atoms: _13  and  _15
REMARK    7  A    between atoms: _15  and  _16
REMARK    8  A    between atoms: _15  and  _18
REMARK    9  A    between atoms: _18  and  _19
REMARK   10  A    between atoms: _24  and  _25
REMARK   11  A    between atoms: _27  and  _29
REMARK   12  A    between atoms: _29  and  _30
REMARK   13  A    between atoms: _29  and  _32
REMARK   14  A    between atoms: _35  and  _37
REMARK   15  A    between atoms: _37  and  _38
REMARK   16  A    between atoms: _37  and  _40
REMARK   17  A    between atoms: _40  and  _41
REMARK   18  A    between atoms: _44  and  _46
REMARK   19  A    between atoms: _46  and  _47
REMARK   20  A    between atoms: _46  and  _49
REMARK   21  A    between atoms: _49  and  _50
REMARK   22  A    between atoms: _50  and  _51
REMARK   23  A    between atoms: _54  and  _56
REMARK   24  A    between atoms: _56  and  _57
REMARK   25  A    between atoms: _56  and  _59
REMARK   26  A    between atoms: _59  and  _60
REMARK   27  A    between atoms: _60  and  _61
REMARK   28  A    between atoms: _66  and  _68
REMARK   29  A    between atoms: _68  and  _69
REMARK   30  A    between atoms: _68  and  _71
REMARK   31  A    between atoms: _71  and  _72
REMARK   32  A    between atoms: _78  and  _80
REMARK   33  A    between atoms: _80  and  _81
REMARK   34  A    between atoms: _83  and  _85
REMARK   35  A    between atoms: _85  and  _86
REMARK   36  A    between atoms: _85  and  _88
REMARK   37  A    between atoms: _88  and  _89
REMARK   38  A    between atoms: _91  and  _93
REMARK   39  A    between atoms: _93  and  _94
REMARK   40  A    between atoms: _93  and  _96
REMARK   41  A    between atoms: _96  and  _97
REMARK   42  A    between atoms: _97  and  _98
REMARK   43  A    between atoms: _100  and  _102
REMARK   44  A    between atoms: _102  and  _103
REMARK   45  A    between atoms: _102  and  _105
REMARK   46  A    between atoms: _105  and  _106
REMARK   47  A    between atoms: _116  and  _118
REMARK   48  A    between atoms: _118  and  _119
REMARK   49  A    between atoms: _118  and  _121
REMARK   50  A    between atoms: _121  and  _122
REMARK   51  A    between atoms: _128  and  _129
REMARK   52  A    between atoms: _134  and  _136
REMARK   53  A    between atoms: _136  and  _137
REMARK   54  A    between atoms: _136  and  _139
REMARK   55  A    between atoms: _139  and  _140
REMARK   56  A    between atoms: _150  and  _152
REMARK   57  A    between atoms: _152  and  _153
REMARK   58  A    between atoms: _152  and  _155
REMARK   59  A    between atoms: _155  and  _156
REMARK   60  A    between atoms: _159  and  _161
REMARK   61  A    between atoms: _161  and  _162
REMARK   62  A    between atoms: _161  and  _164
REMARK   63  A    between atoms: _164  and  _165
REMARK   64  A    between atoms: _170  and  _171
REMARK   65  A    between atoms: _173  and  _175
REMARK   66  A    between atoms: _175  and  _176
REMARK   67  A    between atoms: _178  and  _180
REMARK   68  A    between atoms: _180  and  _181
REMARK   69  A    between atoms: _183  and  _185
REMARK   70  A    between atoms: _185  and  _186
REMARK   71  A    between atoms: _188  and  _190
REMARK   72  A    between atoms: _190  and  _191
REMARK   73  A    between atoms: _190  and  _193
REMARK   74  A    between atoms: _193  and  _194
REMARK   75  A    between atoms: _200  and  _202
REMARK   76  A    between atoms: _202  and  _203
REMARK   77  A    between atoms: _202  and  _205
REMARK   78  A    between atoms: _205  and  _206
REMARK   79  A    between atoms: _211  and  _212
REMARK   80  A    between atoms: _214  and  _216
REMARK   81  A    between atoms: _216  and  _217
REMARK   82  A    between atoms: _216  and  _219
REMARK   83  A    between atoms: _219  and  _220
REMARK   84  A    between atoms: _222  and  _224
REMARK   85  A    between atoms: _224  and  _225
REMARK   86  A    between atoms: _227  and  _229
REMARK   87  A    between atoms: _229  and  _230
REMARK   88  A    between atoms: _229  and  _232
REMARK   89  A    between atoms: _232  and  _233
REMARK   90  A    between atoms: _235  and  _237
REMARK   91  A    between atoms: _237  and  _238
REMARK   92  A    between atoms: _237  and  _240
REMARK   93  A    between atoms: _240  and  _241
REMARK   94  A    between atoms: _243  and  _245
REMARK   95  A    between atoms: _245  and  _246
REMARK   96  A    between atoms: _245  and  _248
REMARK   97  A    between atoms: _248  and  _249
REMARK   98  A    between atoms: _252  and  _254
REMARK   99  A    between atoms: _254  and  _255
REMARK  100  A    between atoms: _254  and  _257
REMARK  101  A    between atoms: _257  and  _258
REMARK  102  A    between atoms: _261  and  _263
REMARK  103  A    between atoms: _263  and  _264
REMARK  104  A    between atoms: _263  and  _266
REMARK  105  A    between atoms: _269  and  _271
REMARK  106  A    between atoms: _271  and  _272
REMARK  107  A    between atoms: _271  and  _274
REMARK  108  A    between atoms: _274  and  _275
REMARK  109  A    between atoms: _280  and  _281
REMARK  110  A    between atoms: _283  and  _285
REMARK  111  A    between atoms: _285  and  _286
REMARK  112  A    between atoms: _285  and  _288
REMARK  113  A    between atoms: _288  and  _289
REMARK  114  A    between atoms: _294  and  _295
REMARK  115  A    between atoms: _297  and  _299
REMARK  116  A    between atoms: _299  and  _300
REMARK  117  A    between atoms: _299  and  _302
REMARK  118  A    between atoms: _305  and  _307
REMARK  119  A    between atoms: _307  and  _308
REMARK  120  A    between atoms: _307  and  _310
REMARK  121  A    between atoms: _310  and  _311
REMARK  122  A    between atoms: _311  and  _312
REMARK  123  A    between atoms: _315  and  _317
REMARK  124  A    between atoms: _317  and  _318
REMARK  125  A    between atoms: _317  and  _320
REMARK  126  A    between atoms: _320  and  _321
REMARK  127  A    between atoms: _323  and  _325
REMARK  128  A    between atoms: _325  and  _326
REMARK  129  A    between atoms: _329  and  _331
REMARK  130  A    between atoms: _331  and  _332
REMARK  131  A    between atoms: _334  and  _336
REMARK  132  A    between atoms: _336  and  _337
REMARK  133  A    between atoms: _336  and  _339
REMARK  134  A    between atoms: _339  and  _340
REMARK  135  A    between atoms: _340  and  _341
REMARK  136  A    between atoms: _346  and  _348
REMARK  137  A    between atoms: _348  and  _349
REMARK  138  A    between atoms: _348  and  _351
REMARK  139  A    between atoms: _351  and  _352
REMARK  140  A    between atoms: _354  and  _356
REMARK  141  A    between atoms: _356  and  _357
REMARK  142  A    between atoms: _356  and  _359
REMARK  143  A    between atoms: _359  and  _360
REMARK  144  A    between atoms: _360  and  _361
REMARK  145  A    between atoms: _364  and  _366
REMARK  146  A    between atoms: _366  and  _367
REMARK  147  A    between atoms: _366  and  _369
REMARK  148  A    between atoms: _369  and  _370
REMARK  149  A    between atoms: _380  and  _382
REMARK  150  A    between atoms: _382  and  _383
REMARK  151  A    between atoms: _382  and  _385
REMARK  152  A    between atoms: _385  and  _386
REMARK  153  A    between atoms: _391  and  _393
REMARK  154  A    between atoms: _393  and  _394
REMARK  155  A    between atoms: _393  and  _396
REMARK  156  A    between atoms: _396  and  _397
REMARK  157  A    between atoms: _400  and  _402
REMARK  158  A    between atoms: _402  and  _403
REMARK  159  A    between atoms: _402  and  _405
REMARK  160  A    between atoms: _405  and  _406
REMARK  161  A    between atoms: _412  and  _414
REMARK  162  A    between atoms: _414  and  _415
REMARK  163  A    between atoms: _414  and  _417
REMARK  164  A    between atoms: _417  and  _418
REMARK  165  A    between atoms: _421  and  _423
REMARK  166  A    between atoms: _423  and  _424
REMARK  167  A    between atoms: _423  and  _426
REMARK  168  A    between atoms: _426  and  _427
REMARK  169  A    between atoms: _429  and  _431
REMARK  170  A    between atoms: _431  and  _432
REMARK  171  A    between atoms: _431  and  _434
REMARK  172  A    between atoms: _434  and  _435
REMARK  173  A    between atoms: _438  and  _440
REMARK  174  A    between atoms: _440  and  _441
REMARK  175  A    between atoms: _440  and  _443
REMARK  176  A    between atoms: _443  and  _444
REMARK  177  A    between atoms: _450  and  _452
REMARK  178  A    between atoms: _452  and  _453
REMARK  179  A    between atoms: _452  and  _455
REMARK  180  A    between atoms: _455  and  _456
REMARK  181  A    between atoms: _456  and  _457
REMARK  182  A    between atoms: _457  and  _458
REMARK  183  A    between atoms: _467  and  _469
REMARK  184  A    between atoms: _469  and  _470
REMARK  185  A    between atoms: _469  and  _472
REMARK  186  A    between atoms: _472  and  _473
REMARK  187  A    between atoms: _479  and  _481
REMARK  188  A    between atoms: _481  and  _482
REMARK  189  A    between atoms: _481  and  _484
REMARK  190  A    between atoms: _484  and  _485
REMARK  191  A    between atoms: _487  and  _489
REMARK  192  A    between atoms: _489  and  _490
REMARK  193  A    between atoms: _489  and  _492
REMARK  194  A    between atoms: _492  and  _493
REMARK  195  A    between atoms: _498  and  _500
REMARK  196  A    between atoms: _500  and  _501
REMARK  197  A    between atoms: _500  and  _503
REMARK  198  A    between atoms: _503  and  _504
REMARK  199  A    between atoms: _504  and  _505
REMARK  200  A    between atoms: _508  and  _510
REMARK  201  A    between atoms: _510  and  _511
REMARK  202  A    between atoms: _513  and  _515
REMARK  203  A    between atoms: _515  and  _516
REMARK  204  A    between atoms: _515  and  _518
REMARK  205  A    between atoms: _518  and  _519
REMARK  206  A    between atoms: _521  and  _523
REMARK  207  A    between atoms: _523  and  _524
REMARK  208  A    between atoms: _523  and  _526
REMARK  209  A    between atoms: _526  and  _527
REMARK  210  A    between atoms: _533  and  _535
REMARK  211  A    between atoms: _535  and  _536
REMARK  212  A    between atoms: _535  and  _538
REMARK  213  A    between atoms: _538  and  _539
REMARK  214  A    between atoms: _545  and  _547
REMARK  215  A    between atoms: _547  and  _548
REMARK  216  A    between atoms: _547  and  _550
REMARK  217  A    between atoms: _550  and  _551
REMARK  218  A    between atoms: _554  and  _556
REMARK  219  A    between atoms: _556  and  _557
REMARK  220  A    between atoms: _556  and  _559
REMARK  221  A    between atoms: _559  and  _560
REMARK  222  A    between atoms: _563  and  _565
REMARK  223  A    between atoms: _565  and  _566
REMARK  224  A    between atoms: _565  and  _568
REMARK  225  A    between atoms: _568  and  _569
REMARK  226  A    between atoms: _574  and  _575
REMARK  227  A    between atoms: _577  and  _579
REMARK  228  A    between atoms: _579  and  _580
REMARK  229  A    between atoms: _582  and  _584
REMARK  230  A    between atoms: _584  and  _585
REMARK  231  A    between atoms: _588  and  _590
REMARK  232  A    between atoms: _590  and  _591
REMARK  233  A    between atoms: _590  and  _593
REMARK  234  A    between atoms: _593  and  _594
REMARK  235  A    between atoms: _597  and  _599
REMARK  236  A    between atoms: _599  and  _600
REMARK  237  A    between atoms: _599  and  _602
REMARK  238  A    between atoms: _602  and  _603
REMARK  239  A    between atoms: _605  and  _607
REMARK  240  A    between atoms: _607  and  _608
REMARK  241  A    between atoms: _607  and  _610
REMARK  242  A    between atoms: _613  and  _615
REMARK  243  A    between atoms: _615  and  _616
REMARK  244  A    between atoms: _615  and  _618
REMARK  245  A    between atoms: _618  and  _619
REMARK  246  A    between atoms: _624  and  _626
REMARK  247  A    between atoms: _626  and  _627
REMARK  248  A    between atoms: _626  and  _629
REMARK  249  A    between atoms: _629  and  _630
REMARK  250  A    between atoms: _640  and  _642
REMARK  251  A    between atoms: _642  and  _643
REMARK  252  A    between atoms: _642  and  _645
REMARK  253  A    between atoms: _645  and  _646
REMARK  254  A    between atoms: _646  and  _647
REMARK  255  A    between atoms: _649  and  _651
REMARK  256  A    between atoms: _651  and  _652
REMARK  257  A    between atoms: _651  and  _654
REMARK  258  A    between atoms: _654  and  _655
REMARK  259  A    between atoms: _658  and  _660
REMARK  260  A    between atoms: _660  and  _661
REMARK  261  A    between atoms: _660  and  _663
REMARK  262  A    between atoms: _663  and  _664
REMARK  263  A    between atoms: _669  and  _671
REMARK  264  A    between atoms: _671  and  _672
REMARK  265  A    between atoms: _674  and  _676
REMARK  266  A    between atoms: _676  and  _677
REMARK  267  A    between atoms: _676  and  _679
REMARK  268  A    between atoms: _679  and  _680
REMARK  269  A    between atoms: _685  and  _686
REMARK  270  A    between atoms: _688  and  _690
REMARK  271  A    between atoms: _690  and  _691
REMARK  272  A    between atoms: _690  and  _693
REMARK  273  A    between atoms: _693  and  _694
REMARK  274  A    between atoms: _694  and  _695
REMARK  275  A    between atoms: _698  and  _700
REMARK  276  A    between atoms: _700  and  _701
REMARK  277  A    between atoms: _700  and  _703
REMARK  278  A    between atoms: _703  and  _704
REMARK                            x       y       z     vdW  Elec       q    Type
REMARK                         _______ _______ _______ _____ _____    ______ ____
ROOT
ATOM      1  O   HOH     1       4.502  64.704  63.215  0.00  0.00    +0.000 OA
ENDROOT
TORSDOF 0
REMARK  Name = ../refined-set-2016/1h23/1h23_pocket.pdb
REMARK  278 active torsions:
REMARK  status: ('A' for Active; 'I' for Inactive)
REMARK    1  A    between atoms: _1  and  _3
REMARK    2  A    between atoms: _3  and  _4
REMARK    3  A    between atoms: _3  and  _6
REMARK    4  A    between atoms: _6  and  _7
REMARK    5  A    between atoms: _7  and  _8
REMARK    6  A    between atoms: _13  and  _15
REMARK    7  A    between atoms: _15  and  _16
REMARK    8  A    between atoms: _15  and  _18
REMARK    9  A    between atoms: _18  and  _19
REMARK   10  A    between atoms: _24  and  _25
REMARK   11  A    between atoms: _27  and  _29
REMARK   12  A    between atoms: _29  and  _30
REMARK   13  A    between atoms: _29  and  _32
REMARK   14  A    between atoms: _35  and  _37
REMARK   15  A    between atoms: _37  and  _38
REMARK   16  A    between atoms: _37  and  _40
REMARK   17  A    between atoms: _40  and  _41
REMARK   18  A    between atoms: _44  and  _46
REMARK   19  A    between atoms: _46  and  _47
REMARK   20  A    between atoms: _46  and  _49
REMARK   21  A    between atoms: _49  and  _50
REMARK   22  A    between atoms: _50  and  _51
REMARK   23  A    between atoms: _54  and  _56
REMARK   24  A    between atoms: _56  and  _57
REMARK   25  A    between atoms: _56  and  _59
REMARK   26  A    between atoms: _59  and  _60
REMARK   27  A    between atoms: _60  and  _61
REMARK   28  A    between atoms: _66  and  _68
REMARK   29  A    between atoms: _68  and  _69
REMARK   30  A    between atoms: _68  and  _71
REMARK   31  A    between atoms: _71  and  _72
REMARK   32  A    between atoms: _78  and  _80
REMARK   33  A    between atoms: _80  and  _81
REMARK   34  A    between atoms: _83  and  _85
REMARK   35  A    between atoms: _85  and  _86
REMARK   36  A    between atoms: _85  and  _88
REMARK   37  A    between atoms: _88  and  _89
REMARK   38  A    between atoms: _91  and  _93
REMARK   39  A    between atoms: _93  and  _94
REMARK   40  A    between atoms: _93  and  _96
REMARK   41  A    between atoms: _96  and  _97
REMARK   42  A    between atoms: _97  and  _98
REMARK   43  A    between atoms: _100  and  _102
REMARK   44  A    between atoms: _102  and  _103
REMARK   45  A    between atoms: _102  and  _105
REMARK   46  A    between atoms: _105  and  _106
REMARK   47  A    between atoms: _116  and  _118
REMARK   48  A    between atoms: _118  and  _119
REMARK   49  A    between atoms: _118  and  _121
REMARK   50  A    between atoms: _121  and  _122
REMARK   51  A    between atoms: _128  and  _129
REMARK   52  A    between atoms: _134  and  _136
REMARK   53  A    between atoms: _136  and  _137
REMARK   54  A    between atoms: _136  and  _139
REMARK   55  A    between atoms: _139  and  _140
REMARK   56  A    between atoms: _150  and  _152
REMARK   57  A    between atoms: _152  and  _153
REMARK   58  A    between atoms: _152  and  _155
REMARK   59  A    between atoms: _155  and  _156
REMARK   60  A    between atoms: _159  and  _161
REMARK   61  A    between atoms: _161  and  _162
REMARK   62  A    between atoms: _161  and  _164
REMARK   63  A    between atoms: _164  and  _165
REMARK   64  A    between atoms: _170  and  _171
REMARK   65  A    between atoms: _173  and  _175
REMARK   66  A    between atoms: _175  and  _176
REMARK   67  A    between atoms: _178  and  _180
REMARK   68  A    between atoms: _180  and  _181
REMARK   69  A    between atoms: _183  and  _185
REMARK   70  A    between atoms: _185  and  _186
REMARK   71  A    between atoms: _188  and  _190
REMARK   72  A    between atoms: _190  and  _191
REMARK   73  A    between atoms: _190  and  _193
REMARK   74  A    between atoms: _193  and  _194
REMARK   75  A    between atoms: _200  and  _202
REMARK   76  A    between atoms: _202  and  _203
REMARK   77  A    between atoms: _202  and  _205
REMARK   78  A    between atoms: _205  and  _206
REMARK   79  A    between atoms: _211  and  _212
REMARK   80  A    between atoms: _214  and  _216
REMARK   81  A    between atoms: _216  and  _217
REMARK   82  A    between atoms: _216  and  _219
REMARK   83  A    between atoms: _219  and  _220
REMARK   84  A    between atoms: _222  and  _224
REMARK   85  A    between atoms: _224  and  _225
REMARK   86  A    between atoms: _227  and  _229
REMARK   87  A    between atoms: _229  and  _230
REMARK   88  A    between atoms: _229  and  _232
REMARK   89  A    between atoms: _232  and  _233
REMARK   90  A    between atoms: _235  and  _237
REMARK   91  A    between atoms: _237  and  _238
REMARK   92  A    between atoms: _237  and  _240
REMARK   93  A    between atoms: _240  and  _241
REMARK   94  A    between atoms: _243  and  _245
REMARK   95  A    between atoms: _245  and  _246
REMARK   96  A    between atoms: _245  and  _248
REMARK   97  A    between atoms: _248  and  _249
REMARK   98  A    between atoms: _252  and  _254
REMARK   99  A    between atoms: _254  and  _255
REMARK  100  A    between atoms: _254  and  _257
REMARK  101  A    between atoms: _257  and  _258
REMARK  102  A    between atoms: _261  and  _263
REMARK  103  A    between atoms: _263  and  _264
REMARK  104  A    between atoms: _263  and  _266
REMARK  105  A    between atoms: _269  and  _271
REMARK  106  A    between atoms: _271  and  _272
REMARK  107  A    between atoms: _271  and  _274
REMARK  108  A    between atoms: _274  and  _275
REMARK  109  A    between atoms: _280  and  _281
REMARK  110  A    between atoms: _283  and  _285
REMARK  111  A    between atoms: _285  and  _286
REMARK  112  A    between atoms: _285  and  _288
REMARK  113  A    between atoms: _288  and  _289
REMARK  114  A    between atoms: _294  and  _295
REMARK  115  A    between atoms: _297  and  _299
REMARK  116  A    between atoms: _299  and  _300
REMARK  117  A    between atoms: _299  and  _302
REMARK  118  A    between atoms: _305  and  _307
REMARK  119  A    between atoms: _307  and  _308
REMARK  120  A    between atoms: _307  and  _310
REMARK  121  A    between atoms: _310  and  _311
REMARK  122  A    between atoms: _311  and  _312
REMARK  123  A    between atoms: _315  and  _317
REMARK  124  A    between atoms: _317  and  _318
REMARK  125  A    between atoms: _317  and  _320
REMARK  126  A    between atoms: _320  and  _321
REMARK  127  A    between atoms: _323  and  _325
REMARK  128  A    between atoms: _325  and  _326
REMARK  129  A    between atoms: _329  and  _331
REMARK  130  A    between atoms: _331  and  _332
REMARK  131  A    between atoms: _334  and  _336
REMARK  132  A    between atoms: _336  and  _337
REMARK  133  A    between atoms: _336  and  _339
REMARK  134  A    between atoms: _339  and  _340
REMARK  135  A    between atoms: _340  and  _341
REMARK  136  A    between atoms: _346  and  _348
REMARK  137  A    between atoms: _348  and  _349
REMARK  138  A    between atoms: _348  and  _351
REMARK  139  A    between atoms: _351  and  _352
REMARK  140  A    between atoms: _354  and  _356
REMARK  141  A    between atoms: _356  and  _357
REMARK  142  A    between atoms: _356  and  _359
REMARK  143  A    between atoms: _359  and  _360
REMARK  144  A    between atoms: _360  and  _361
REMARK  145  A    between atoms: _364  and  _366
REMARK  146  A    between atoms: _366  and  _367
REMARK  147  A    between atoms: _366  and  _369
REMARK  148  A    between atoms: _369  and  _370
REMARK  149  A    between atoms: _380  and  _382
REMARK  150  A    between atoms: _382  and  _383
REMARK  151  A    between atoms: _382  and  _385
REMARK  152  A    between atoms: _385  and  _386
REMARK  153  A    between atoms: _391  and  _393
REMARK  154  A    between atoms: _393  and  _394
REMARK  155  A    between atoms: _393  and  _396
REMARK  156  A    between atoms: _396  and  _397
REMARK  157  A    between atoms: _400  and  _402
REMARK  158  A    between atoms: _402  and  _403
REMARK  159  A    between atoms: _402  and  _405
REMARK  160  A    between atoms: _405  and  _406
REMARK  161  A    between atoms: _412  and  _414
REMARK  162  A    between atoms: _414  and  _415
REMARK  163  A    between atoms: _414  and  _417
REMARK  164  A    between atoms: _417  and  _418
REMARK  165  A    between atoms: _421  and  _423
REMARK  166  A    between atoms: _423  and  _424
REMARK  167  A    between atoms: _423  and  _426
REMARK  168  A    between atoms: _426  and  _427
REMARK  169  A    between atoms: _429  and  _431
REMARK  170  A    between atoms: _431  and  _432
REMARK  171  A    between atoms: _431  and  _434
REMARK  172  A    between atoms: _434  and  _435
REMARK  173  A    between atoms: _438  and  _440
REMARK  174  A    between atoms: _440  and  _441
REMARK  175  A    between atoms: _440  and  _443
REMARK  176  A    between atoms: _443  and  _444
REMARK  177  A    between atoms: _450  and  _452
REMARK  178  A    between atoms: _452  and  _453
REMARK  179  A    between atoms: _452  and  _455
REMARK  180  A    between atoms: _455  and  _456
REMARK  181  A    between atoms: _456  and  _457
REMARK  182  A    between atoms: _457  and  _458
REMARK  183  A    between atoms: _467  and  _469
REMARK  184  A    between atoms: _469  and  _470
REMARK  185  A    between atoms: _469  and  _472
REMARK  186  A    between atoms: _472  and  _473
REMARK  187  A    between atoms: _479  and  _481
REMARK  188  A    between atoms: _481  and  _482
REMARK  189  A    between atoms: _481  and  _484
REMARK  190  A    between atoms: _484  and  _485
REMARK  191  A    between atoms: _487  and  _489
REMARK  192  A    between atoms: _489  and  _490
REMARK  193  A    between atoms: _489  and  _492
REMARK  194  A    between atoms: _492  and  _493
REMARK  195  A    between atoms: _498  and  _500
REMARK  196  A    between atoms: _500  and  _501
REMARK  197  A    between atoms: _500  and  _503
REMARK  198  A    between atoms: _503  and  _504
REMARK  199  A    between atoms: _504  and  _505
REMARK  200  A    between atoms: _508  and  _510
REMARK  201  A    between atoms: _510  and  _511
REMARK  202  A    between atoms: _513  and  _515
REMARK  203  A    between atoms: _515  and  _516
REMARK  204  A    between atoms: _515  and  _518
REMARK  205  A    between atoms: _518  and  _519
REMARK  206  A    between atoms: _521  and  _523
REMARK  207  A    between atoms: _523  and  _524
REMARK  208  A    between atoms: _523  and  _526
REMARK  209  A    between atoms: _526  and  _527
REMARK  210  A    between atoms: _533  and  _535
REMARK  211  A    between atoms: _535  and  _536
REMARK  212  A    between atoms: _535  and  _538
REMARK  213  A    between atoms: _538  and  _539
REMARK  214  A    between atoms: _545  and  _547
REMARK  215  A    between atoms: _547  and  _548
REMARK  216  A    between atoms: _547  and  _550
REMARK  217  A    between atoms: _550  and  _551
REMARK  218  A    between atoms: _554  and  _556
REMARK  219  A    between atoms: _556  and  _557
REMARK  220  A    between atoms: _556  and  _559
REMARK  221  A    between atoms: _559  and  _560
REMARK  222  A    between atoms: _563  and  _565
REMARK  223  A    between atoms: _565  and  _566
REMARK  224  A    between atoms: _565  and  _568
REMARK  225  A    between atoms: _568  and  _569
REMARK  226  A    between atoms: _574  and  _575
REMARK  227  A    between atoms: _577  and  _579
REMARK  228  A    between atoms: _579  and  _580
REMARK  229  A    between atoms: _582  and  _584
REMARK  230  A    between atoms: _584  and  _585
REMARK  231  A    between atoms: _588  and  _590
REMARK  232  A    between atoms: _590  and  _591
REMARK  233  A    between atoms: _590  and  _593
REMARK  234  A    between atoms: _593  and  _594
REMARK  235  A    between atoms: _597  and  _599
REMARK  236  A    between atoms: _599  and  _600
REMARK  237  A    between atoms: _599  and  _602
REMARK  238  A    between atoms: _602  and  _603
REMARK  239  A    between atoms: _605  and  _607
REMARK  240  A    between atoms: _607  and  _608
REMARK  241  A    between atoms: _607  and  _610
REMARK  242  A    between atoms: _613  and  _615
REMARK  243  A    between atoms: _615  and  _616
REMARK  244  A    between atoms: _615  and  _618
REMARK  245  A    between atoms: _618  and  _619
REMARK  246  A    between atoms: _624  and  _626
REMARK  247  A    between atoms: _626  and  _627
REMARK  248  A    between atoms: _626  and  _629
REMARK  249  A    between atoms: _629  and  _630
REMARK  250  A    between atoms: _640  and  _642
REMARK  251  A    between atoms: _642  and  _643
REMARK  252  A    between atoms: _642  and  _645
REMARK  253  A    between atoms: _645  and  _646
REMARK  254  A    between atoms: _646  and  _647
REMARK  255  A    between atoms: _649  and  _651
REMARK  256  A    between atoms: _651  and  _652
REMARK  257  A    between atoms: _651  and  _654
REMARK  258  A    between atoms: _654  and  _655
REMARK  259  A    between atoms: _658  and  _660
REMARK  260  A    between atoms: _660  and  _661
REMARK  261  A    between atoms: _660  and  _663
REMARK  262  A    between atoms: _663  and  _664
REMARK  263  A    between atoms: _669  and  _671
REMARK  264  A    between atoms: _671  and  _672
REMARK  265  A    between atoms: _674  and  _676
REMARK  266  A    between atoms: _676  and  _677
REMARK  267  A    between atoms: _676  and  _679
REMARK  268  A    between atoms: _679  and  _680
REMARK  269  A    between atoms: _685  and  _686
REMARK  270  A    between atoms: _688  and  _690
REMARK  271  A    between atoms: _690  and  _691
REMARK  272  A    between atoms: _690  and  _693
REMARK  273  A    between atoms: _693  and  _694
REMARK  274  A    between atoms: _694  and  _695
REMARK  275  A    between atoms: _698  and  _700
REMARK  276  A    between atoms: _700  and  _701
REMARK  277  A    between atoms: _700  and  _703
REMARK  278  A    between atoms: _703  and  _704
REMARK                            x       y       z     vdW  Elec       q    Type
REMARK                         _______ _______ _______ _____ _____    ______ ____
ROOT
ATOM      1  O   HOH     1       5.106  61.607  61.529  0.00  0.00    +0.000 OA
ENDROOT
TORSDOF 0
REMARK  Name = ../refined-set-2016/1h23/1h23_pocket.pdb
REMARK  278 active torsions:
REMARK  status: ('A' for Active; 'I' for Inactive)
REMARK    1  A    between atoms: _1  and  _3
REMARK    2  A    between atoms: _3  and  _4
REMARK    3  A    between atoms: _3  and  _6
REMARK    4  A    between atoms: _6  and  _7
REMARK    5  A    between atoms: _7  and  _8
REMARK    6  A    between atoms: _13  and  _15
REMARK    7  A    between atoms: _15  and  _16
REMARK    8  A    between atoms: _15  and  _18
REMARK    9  A    between atoms: _18  and  _19
REMARK   10  A    between atoms: _24  and  _25
REMARK   11  A    between atoms: _27  and  _29
REMARK   12  A    between atoms: _29  and  _30
REMARK   13  A    between atoms: _29  and  _32
REMARK   14  A    between atoms: _35  and  _37
REMARK   15  A    between atoms: _37  and  _38
REMARK   16  A    between atoms: _37  and  _40
REMARK   17  A    between atoms: _40  and  _41
REMARK   18  A    between atoms: _44  and  _46
REMARK   19  A    between atoms: _46  and  _47
REMARK   20  A    between atoms: _46  and  _49
REMARK   21  A    between atoms: _49  and  _50
REMARK   22  A    between atoms: _50  and  _51
REMARK   23  A    between atoms: _54  and  _56
REMARK   24  A    between atoms: _56  and  _57
REMARK   25  A    between atoms: _56  and  _59
REMARK   26  A    between atoms: _59  and  _60
REMARK   27  A    between atoms: _60  and  _61
REMARK   28  A    between atoms: _66  and  _68
REMARK   29  A    between atoms: _68  and  _69
REMARK   30  A    between atoms: _68  and  _71
REMARK   31  A    between atoms: _71  and  _72
REMARK   32  A    between atoms: _78  and  _80
REMARK   33  A    between atoms: _80  and  _81
REMARK   34  A    between atoms: _83  and  _85
REMARK   35  A    between atoms: _85  and  _86
REMARK   36  A    between atoms: _85  and  _88
REMARK   37  A    between atoms: _88  and  _89
REMARK   38  A    between atoms: _91  and  _93
REMARK   39  A    between atoms: _93  and  _94
REMARK   40  A    between atoms: _93  and  _96
REMARK   41  A    between atoms: _96  and  _97
REMARK   42  A    between atoms: _97  and  _98
REMARK   43  A    between atoms: _100  and  _102
REMARK   44  A    between atoms: _102  and  _103
REMARK   45  A    between atoms: _102  and  _105
REMARK   46  A    between atoms: _105  and  _106
REMARK   47  A    between atoms: _116  and  _118
REMARK   48  A    between atoms: _118  and  _119
REMARK   49  A    between atoms: _118  and  _121
REMARK   50  A    between atoms: _121  and  _122
REMARK   51  A    between atoms: _128  and  _129
REMARK   52  A    between atoms: _134  and  _136
REMARK   53  A    between atoms: _136  and  _137
REMARK   54  A    between atoms: _136  and  _139
REMARK   55  A    between atoms: _139  and  _140
REMARK   56  A    between atoms: _150  and  _152
REMARK   57  A    between atoms: _152  and  _153
REMARK   58  A    between atoms: _152  and  _155
REMARK   59  A    between atoms: _155  and  _156
REMARK   60  A    between atoms: _159  and  _161
REMARK   61  A    between atoms: _161  and  _162
REMARK   62  A    between atoms: _161  and  _164
REMARK   63  A    between atoms: _164  and  _165
REMARK   64  A    between atoms: _170  and  _171
REMARK   65  A    between atoms: _173  and  _175
REMARK   66  A    between atoms: _175  and  _176
REMARK   67  A    between atoms: _178  and  _180
REMARK   68  A    between atoms: _180  and  _181
REMARK   69  A    between atoms: _183  and  _185
REMARK   70  A    between atoms: _185  and  _186
REMARK   71  A    between atoms: _188  and  _190
REMARK   72  A    between atoms: _190  and  _191
REMARK   73  A    between atoms: _190  and  _193
REMARK   74  A    between atoms: _193  and  _194
REMARK   75  A    between atoms: _200  and  _202
REMARK   76  A    between atoms: _202  and  _203
REMARK   77  A    between atoms: _202  and  _205
REMARK   78  A    between atoms: _205  and  _206
REMARK   79  A    between atoms: _211  and  _212
REMARK   80  A    between atoms: _214  and  _216
REMARK   81  A    between atoms: _216  and  _217
REMARK   82  A    between atoms: _216  and  _219
REMARK   83  A    between atoms: _219  and  _220
REMARK   84  A    between atoms: _222  and  _224
REMARK   85  A    between atoms: _224  and  _225
REMARK   86  A    between atoms: _227  and  _229
REMARK   87  A    between atoms: _229  and  _230
REMARK   88  A    between atoms: _229  and  _232
REMARK   89  A    between atoms: _232  and  _233
REMARK   90  A    between atoms: _235  and  _237
REMARK   91  A    between atoms: _237  and  _238
REMARK   92  A    between atoms: _237  and  _240
REMARK   93  A    between atoms: _240  and  _241
REMARK   94  A    between atoms: _243  and  _245
REMARK   95  A    between atoms: _245  and  _246
REMARK   96  A    between atoms: _245  and  _248
REMARK   97  A    between atoms: _248  and  _249
REMARK   98  A    between atoms: _252  and  _254
REMARK   99  A    between atoms: _254  and  _255
REMARK  100  A    between atoms: _254  and  _257
REMARK  101  A    between atoms: _257  and  _258
REMARK  102  A    between atoms: _261  and  _263
REMARK  103  A    between atoms: _263  and  _264
REMARK  104  A    between atoms: _263  and  _266
REMARK  105  A    between atoms: _269  and  _271
REMARK  106  A    between atoms: _271  and  _272
REMARK  107  A    between atoms: _271  and  _274
REMARK  108  A    between atoms: _274  and  _275
REMARK  109  A    between atoms: _280  and  _281
REMARK  110  A    between atoms: _283  and  _285
REMARK  111  A    between atoms: _285  and  _286
REMARK  112  A    between atoms: _285  and  _288
REMARK  113  A    between atoms: _288  and  _289
REMARK  114  A    between atoms: _294  and  _295
REMARK  115  A    between atoms: _297  and  _299
REMARK  116  A    between atoms: _299  and  _300
REMARK  117  A    between atoms: _299  and  _302
REMARK  118  A    between atoms: _305  and  _307
REMARK  119  A    between atoms: _307  and  _308
REMARK  120  A    between atoms: _307  and  _310
REMARK  121  A    between atoms: _310  and  _311
REMARK  122  A    between atoms: _311  and  _312
REMARK  123  A    between atoms: _315  and  _317
REMARK  124  A    between atoms: _317  and  _318
REMARK  125  A    between atoms: _317  and  _320
REMARK  126  A    between atoms: _320  and  _321
REMARK  127  A    between atoms: _323  and  _325
REMARK  128  A    between atoms: _325  and  _326
REMARK  129  A    between atoms: _329  and  _331
REMARK  130  A    between atoms: _331  and  _332
REMARK  131  A    between atoms: _334  and  _336
REMARK  132  A    between atoms: _336  and  _337
REMARK  133  A    between atoms: _336  and  _339
REMARK  134  A    between atoms: _339  and  _340
REMARK  135  A    between atoms: _340  and  _341
REMARK  136  A    between atoms: _346  and  _348
REMARK  137  A    between atoms: _348  and  _349
REMARK  138  A    between atoms: _348  and  _351
REMARK  139  A    between atoms: _351  and  _352
REMARK  140  A    between atoms: _354  and  _356
REMARK  141  A    between atoms: _356  and  _357
REMARK  142  A    between atoms: _356  and  _359
REMARK  143  A    between atoms: _359  and  _360
REMARK  144  A    between atoms: _360  and  _361
REMARK  145  A    between atoms: _364  and  _366
REMARK  146  A    between atoms: _366  and  _367
REMARK  147  A    between atoms: _366  and  _369
REMARK  148  A    between atoms: _369  and  _370
REMARK  149  A    between atoms: _380  and  _382
REMARK  150  A    between atoms: _382  and  _383
REMARK  151  A    between atoms: _382  and  _385
REMARK  152  A    between atoms: _385  and  _386
REMARK  153  A    between atoms: _391  and  _393
REMARK  154  A    between atoms: _393  and  _394
REMARK  155  A    between atoms: _393  and  _396
REMARK  156  A    between atoms: _396  and  _397
REMARK  157  A    between atoms: _400  and  _402
REMARK  158  A    between atoms: _402  and  _403
REMARK  159  A    between atoms: _402  and  _405
REMARK  160  A    between atoms: _405  and  _406
REMARK  161  A    between atoms: _412  and  _414
REMARK  162  A    between atoms: _414  and  _415
REMARK  163  A    between atoms: _414  and  _417
REMARK  164  A    between atoms: _417  and  _418
REMARK  165  A    between atoms: _421  and  _423
REMARK  166  A    between atoms: _423  and  _424
REMARK  167  A    between atoms: _423  and  _426
REMARK  168  A    between atoms: _426  and  _427
REMARK  169  A    between atoms: _429  and  _431
REMARK  170  A    between atoms: _431  and  _432
REMARK  171  A    between atoms: _431  and  _434
REMARK  172  A    between atoms: _434  and  _435
REMARK  173  A    between atoms: _438  and  _440
REMARK  174  A    between atoms: _440  and  _441
REMARK  175  A    between atoms: _440  and  _443
REMARK  176  A    between atoms: _443  and  _444
REMARK  177  A    between atoms: _450  and  _452
REMARK  178  A    between atoms: _452  and  _453
REMARK  179  A    between atoms: _452  and  _455
REMARK  180  A    between atoms: _455  and  _456
REMARK  181  A    between atoms: _456  and  _457
REMARK  182  A    between atoms: _457  and  _458
REMARK  183  A    between atoms: _467  and  _469
REMARK  184  A    between atoms: _469  and  _470
REMARK  185  A    between atoms: _469  and  _472
REMARK  186  A    between atoms: _472  and  _473
REMARK  187  A    between atoms: _479  and  _481
REMARK  188  A    between atoms: _481  and  _482
REMARK  189  A    between atoms: _481  and  _484
REMARK  190  A    between atoms: _484  and  _485
REMARK  191  A    between atoms: _487  and  _489
REMARK  192  A    between atoms: _489  and  _490
REMARK  193  A    between atoms: _489  and  _492
REMARK  194  A    between atoms: _492  and  _493
REMARK  195  A    between atoms: _498  and  _500
REMARK  196  A    between atoms: _500  and  _501
REMARK  197  A    between atoms: _500  and  _503
REMARK  198  A    between atoms: _503  and  _504
REMARK  199  A    between atoms: _504  and  _505
REMARK  200  A    between atoms: _508  and  _510
REMARK  201  A    between atoms: _510  and  _511
REMARK  202  A    between atoms: _513  and  _515
REMARK  203  A    between atoms: _515  and  _516
REMARK  204  A    between atoms: _515  and  _518
REMARK  205  A    between atoms: _518  and  _519
REMARK  206  A    between atoms: _521  and  _523
REMARK  207  A    between atoms: _523  and  _524
REMARK  208  A    between atoms: _523  and  _526
REMARK  209  A    between atoms: _526  and  _527
REMARK  210  A    between atoms: _533  and  _535
REMARK  211  A    between atoms: _535  and  _536
REMARK  212  A    between atoms: _535  and  _538
REMARK  213  A    between atoms: _538  and  _539
REMARK  214  A    between atoms: _545  and  _547
REMARK  215  A    between atoms: _547  and  _548
REMARK  216  A    between atoms: _547  and  _550
REMARK  217  A    between atoms: _550  and  _551
REMARK  218  A    between atoms: _554  and  _556
REMARK  219  A    between atoms: _556  and  _557
REMARK  220  A    between atoms: _556  and  _559
REMARK  221  A    between atoms: _559  and  _560
REMARK  222  A    between atoms: _563  and  _565
REMARK  223  A    between atoms: _565  and  _566
REMARK  224  A    between atoms: _565  and  _568
REMARK  225  A    between atoms: _568  and  _569
REMARK  226  A    between atoms: _574  and  _575
REMARK  227  A    between atoms: _577  and  _579
REMARK  228  A    between atoms: _579  and  _580
REMARK  229  A    between atoms: _582  and  _584
REMARK  230  A    between atoms: _584  and  _585
REMARK  231  A    between atoms: _588  and  _590
REMARK  232  A    between atoms: _590  and  _591
REMARK  233  A    between atoms: _590  and  _593
REMARK  234  A    between atoms: _593  and  _594
REMARK  235  A    between atoms: _597  and  _599
REMARK  236  A    between atoms: _599  and  _600
REMARK  237  A    between atoms: _599  and  _602
REMARK  238  A    between atoms: _602  and  _603
REMARK  239  A    between atoms: _605  and  _607
REMARK  240  A    between atoms: _607  and  _608
REMARK  241  A    between atoms: _607  and  _610
REMARK  242  A    between atoms: _613  and  _615
REMARK  243  A    between atoms: _615  and  _616
REMARK  244  A    between atoms: _615  and  _618
REMARK  245  A    between atoms: _618  and  _619
REMARK  246  A    between atoms: _624  and  _626
REMARK  247  A    between atoms: _626  and  _627
REMARK  248  A    between atoms: _626  and  _629
REMARK  249  A    between atoms: _629  and  _630
REMARK  250  A    between atoms: _640  and  _642
REMARK  251  A    between atoms: _642  and  _643
REMARK  252  A    between atoms: _642  and  _645
REMARK  253  A    between atoms: _645  and  _646
REMARK  254  A    between atoms: _646  and  _647
REMARK  255  A    between atoms: _649  and  _651
REMARK  256  A    between atoms: _651  and  _652
REMARK  257  A    between atoms: _651  and  _654
REMARK  258  A    between atoms: _654  and  _655
REMARK  259  A    between atoms: _658  and  _660
REMARK  260  A    between atoms: _660  and  _661
REMARK  261  A    between atoms: _660  and  _663
REMARK  262  A    between atoms: _663  and  _664
REMARK  263  A    between atoms: _669  and  _671
REMARK  264  A    between atoms: _671  and  _672
REMARK  265  A    between atoms: _674  and  _676
REMARK  266  A    between atoms: _676  and  _677
REMARK  267  A    between atoms: _676  and  _679
REMARK  268  A    between atoms: _679  and  _680
REMARK  269  A    between atoms: _685  and  _686
REMARK  270  A    between atoms: _688  and  _690
REMARK  271  A    between atoms: _690  and  _691
REMARK  272  A    between atoms: _690  and  _693
REMARK  273  A    between atoms: _693  and  _694
REMARK  274  A    between atoms: _694  and  _695
REMARK  275  A    between atoms: _698  and  _700
REMARK  276  A    between atoms: _700  and  _701
REMARK  277  A    between atoms: _700  and  _703
REMARK  278  A    between atoms: _703  and  _704
REMARK                            x       y       z     vdW  Elec       q    Type
REMARK                         _______ _______ _______ _____ _____    ______ ____
ROOT
ATOM      1  O   HOH     1      10.731  68.485  59.927  0.00  0.00    +0.000 OA
ENDROOT
TORSDOF 0
REMARK  Name = ../refined-set-2016/1h23/1h23_pocket.pdb
REMARK  278 active torsions:
REMARK  status: ('A' for Active; 'I' for Inactive)
REMARK    1  A    between atoms: _1  and  _3
REMARK    2  A    between atoms: _3  and  _4
REMARK    3  A    between atoms: _3  and  _6
REMARK    4  A    between atoms: _6  and  _7
REMARK    5  A    between atoms: _7  and  _8
REMARK    6  A    between atoms: _13  and  _15
REMARK    7  A    between atoms: _15  and  _16
REMARK    8  A    between atoms: _15  and  _18
REMARK    9  A    between atoms: _18  and  _19
REMARK   10  A    between atoms: _24  and  _25
REMARK   11  A    between atoms: _27  and  _29
REMARK   12  A    between atoms: _29  and  _30
REMARK   13  A    between atoms: _29  and  _32
REMARK   14  A    between atoms: _35  and  _37
REMARK   15  A    between atoms: _37  and  _38
REMARK   16  A    between atoms: _37  and  _40
REMARK   17  A    between atoms: _40  and  _41
REMARK   18  A    between atoms: _44  and  _46
REMARK   19  A    between atoms: _46  and  _47
REMARK   20  A    between atoms: _46  and  _49
REMARK   21  A    between atoms: _49  and  _50
REMARK   22  A    between atoms: _50  and  _51
REMARK   23  A    between atoms: _54  and  _56
REMARK   24  A    between atoms: _56  and  _57
REMARK   25  A    between atoms: _56  and  _59
REMARK   26  A    between atoms: _59  and  _60
REMARK   27  A    between atoms: _60  and  _61
REMARK   28  A    between atoms: _66  and  _68
REMARK   29  A    between atoms: _68  and  _69
REMARK   30  A    between atoms: _68  and  _71
REMARK   31  A    between atoms: _71  and  _72
REMARK   32  A    between atoms: _78  and  _80
REMARK   33  A    between atoms: _80  and  _81
REMARK   34  A    between atoms: _83  and  _85
REMARK   35  A    between atoms: _85  and  _86
REMARK   36  A    between atoms: _85  and  _88
REMARK   37  A    between atoms: _88  and  _89
REMARK   38  A    between atoms: _91  and  _93
REMARK   39  A    between atoms: _93  and  _94
REMARK   40  A    between atoms: _93  and  _96
REMARK   41  A    between atoms: _96  and  _97
REMARK   42  A    between atoms: _97  and  _98
REMARK   43  A    between atoms: _100  and  _102
REMARK   44  A    between atoms: _102  and  _103
REMARK   45  A    between atoms: _102  and  _105
REMARK   46  A    between atoms: _105  and  _106
REMARK   47  A    between atoms: _116  and  _118
REMARK   48  A    between atoms: _118  and  _119
REMARK   49  A    between atoms: _118  and  _121
REMARK   50  A    between atoms: _121  and  _122
REMARK   51  A    between atoms: _128  and  _129
REMARK   52  A    between atoms: _134  and  _136
REMARK   53  A    between atoms: _136  and  _137
REMARK   54  A    between atoms: _136  and  _139
REMARK   55  A    between atoms: _139  and  _140
REMARK   56  A    between atoms: _150  and  _152
REMARK   57  A    between atoms: _152  and  _153
REMARK   58  A    between atoms: _152  and  _155
REMARK   59  A    between atoms: _155  and  _156
REMARK   60  A    between atoms: _159  and  _161
REMARK   61  A    between atoms: _161  and  _162
REMARK   62  A    between atoms: _161  and  _164
REMARK   63  A    between atoms: _164  and  _165
REMARK   64  A    between atoms: _170  and  _171
REMARK   65  A    between atoms: _173  and  _175
REMARK   66  A    between atoms: _175  and  _176
REMARK   67  A    between atoms: _178  and  _180
REMARK   68  A    between atoms: _180  and  _181
REMARK   69  A    between atoms: _183  and  _185
REMARK   70  A    between atoms: _185  and  _186
REMARK   71  A    between atoms: _188  and  _190
REMARK   72  A    between atoms: _190  and  _191
REMARK   73  A    between atoms: _190  and  _193
REMARK   74  A    between atoms: _193  and  _194
REMARK   75  A    between atoms: _200  and  _202
REMARK   76  A    between atoms: _202  and  _203
REMARK   77  A    between atoms: _202  and  _205
REMARK   78  A    between atoms: _205  and  _206
REMARK   79  A    between atoms: _211  and  _212
REMARK   80  A    between atoms: _214  and  _216
REMARK   81  A    between atoms: _216  and  _217
REMARK   82  A    between atoms: _216  and  _219
REMARK   83  A    between atoms: _219  and  _220
REMARK   84  A    between atoms: _222  and  _224
REMARK   85  A    between atoms: _224  and  _225
REMARK   86  A    between atoms: _227  and  _229
REMARK   87  A    between atoms: _229  and  _230
REMARK   88  A    between atoms: _229  and  _232
REMARK   89  A    between atoms: _232  and  _233
REMARK   90  A    between atoms: _235  and  _237
REMARK   91  A    between atoms: _237  and  _238
REMARK   92  A    between atoms: _237  and  _240
REMARK   93  A    between atoms: _240  and  _241
REMARK   94  A    between atoms: _243  and  _245
REMARK   95  A    between atoms: _245  and  _246
REMARK   96  A    between atoms: _245  and  _248
REMARK   97  A    between atoms: _248  and  _249
REMARK   98  A    between atoms: _252  and  _254
REMARK   99  A    between atoms: _254  and  _255
REMARK  100  A    between atoms: _254  and  _257
REMARK  101  A    between atoms: _257  and  _258
REMARK  102  A    between atoms: _261  and  _263
REMARK  103  A    between atoms: _263  and  _264
REMARK  104  A    between atoms: _263  and  _266
REMARK  105  A    between atoms: _269  and  _271
REMARK  106  A    between atoms: _271  and  _272
REMARK  107  A    between atoms: _271  and  _274
REMARK  108  A    between atoms: _274  and  _275
REMARK  109  A    between atoms: _280  and  _281
REMARK  110  A    between atoms: _283  and  _285
REMARK  111  A    between atoms: _285  and  _286
REMARK  112  A    between atoms: _285  and  _288
REMARK  113  A    between atoms: _288  and  _289
REMARK  114  A    between atoms: _294  and  _295
REMARK  115  A    between atoms: _297  and  _299
REMARK  116  A    between atoms: _299  and  _300
REMARK  117  A    between atoms: _299  and  _302
REMARK  118  A    between atoms: _305  and  _307
REMARK  119  A    between atoms: _307  and  _308
REMARK  120  A    between atoms: _307  and  _310
REMARK  121  A    between atoms: _310  and  _311
REMARK  122  A    between atoms: _311  and  _312
REMARK  123  A    between atoms: _315  and  _317
REMARK  124  A    between atoms: _317  and  _318
REMARK  125  A    between atoms: _317  and  _320
REMARK  126  A    between atoms: _320  and  _321
REMARK  127  A    between atoms: _323  and  _325
REMARK  128  A    between atoms: _325  and  _326
REMARK  129  A    between atoms: _329  and  _331
REMARK  130  A    between atoms: _331  and  _332
REMARK  131  A    between atoms: _334  and  _336
REMARK  132  A    between atoms: _336  and  _337
REMARK  133  A    between atoms: _336  and  _339
REMARK  134  A    between atoms: _339  and  _340
REMARK  135  A    between atoms: _340  and  _341
REMARK  136  A    between atoms: _346  and  _348
REMARK  137  A    between atoms: _348  and  _349
REMARK  138  A    between atoms: _348  and  _351
REMARK  139  A    between atoms: _351  and  _352
REMARK  140  A    between atoms: _354  and  _356
REMARK  141  A    between atoms: _356  and  _357
REMARK  142  A    between atoms: _356  and  _359
REMARK  143  A    between atoms: _359  and  _360
REMARK  144  A    between atoms: _360  and  _361
REMARK  145  A    between atoms: _364  and  _366
REMARK  146  A    between atoms: _366  and  _367
REMARK  147  A    between atoms: _366  and  _369
REMARK  148  A    between atoms: _369  and  _370
REMARK  149  A    between atoms: _380  and  _382
REMARK  150  A    between atoms: _382  and  _383
REMARK  151  A    between atoms: _382  and  _385
REMARK  152  A    between atoms: _385  and  _386
REMARK  153  A    between atoms: _391  and  _393
REMARK  154  A    between atoms: _393  and  _394
REMARK  155  A    between atoms: _393  and  _396
REMARK  156  A    between atoms: _396  and  _397
REMARK  157  A    between atoms: _400  and  _402
REMARK  158  A    between atoms: _402  and  _403
REMARK  159  A    between atoms: _402  and  _405
REMARK  160  A    between atoms: _405  and  _406
REMARK  161  A    between atoms: _412  and  _414
REMARK  162  A    between atoms: _414  and  _415
REMARK  163  A    between atoms: _414  and  _417
REMARK  164  A    between atoms: _417  and  _418
REMARK  165  A    between atoms: _421  and  _423
REMARK  166  A    between atoms: _423  and  _424
REMARK  167  A    between atoms: _423  and  _426
REMARK  168  A    between atoms: _426  and  _427
REMARK  169  A    between atoms: _429  and  _431
REMARK  170  A    between atoms: _431  and  _432
REMARK  171  A    between atoms: _431  and  _434
REMARK  172  A    between atoms: _434  and  _435
REMARK  173  A    between atoms: _438  and  _440
REMARK  174  A    between atoms: _440  and  _441
REMARK  175  A    between atoms: _440  and  _443
REMARK  176  A    between atoms: _443  and  _444
REMARK  177  A    between atoms: _450  and  _452
REMARK  178  A    between atoms: _452  and  _453
REMARK  179  A    between atoms: _452  and  _455
REMARK  180  A    between atoms: _455  and  _456
REMARK  181  A    between atoms: _456  and  _457
REMARK  182  A    between atoms: _457  and  _458
REMARK  183  A    between atoms: _467  and  _469
REMARK  184  A    between atoms: _469  and  _470
REMARK  185  A    between atoms: _469  and  _472
REMARK  186  A    between atoms: _472  and  _473
REMARK  187  A    between atoms: _479  and  _481
REMARK  188  A    between atoms: _481  and  _482
REMARK  189  A    between atoms: _481  and  _484
REMARK  190  A    between atoms: _484  and  _485
REMARK  191  A    between atoms: _487  and  _489
REMARK  192  A    between atoms: _489  and  _490
REMARK  193  A    between atoms: _489  and  _492
REMARK  194  A    between atoms: _492  and  _493
REMARK  195  A    between atoms: _498  and  _500
REMARK  196  A    between atoms: _500  and  _501
REMARK  197  A    between atoms: _500  and  _503
REMARK  198  A    between atoms: _503  and  _504
REMARK  199  A    between atoms: _504  and  _505
REMARK  200  A    between atoms: _508  and  _510
REMARK  201  A    between atoms: _510  and  _511
REMARK  202  A    between atoms: _513  and  _515
REMARK  203  A    between atoms: _515  and  _516
REMARK  204  A    between atoms: _515  and  _518
REMARK  205  A    between atoms: _518  and  _519
REMARK  206  A    between atoms: _521  and  _523
REMARK  207  A    between atoms: _523  and  _524
REMARK  208  A    between atoms: _523  and  _526
REMARK  209  A    between atoms: _526  and  _527
REMARK  210  A    between atoms: _533  and  _535
REMARK  211  A    between atoms: _535  and  _536
REMARK  212  A    between atoms: _535  and  _538
REMARK  213  A    between atoms: _538  and  _539
REMARK  214  A    between atoms: _545  and  _547
REMARK  215  A    between atoms: _547  and  _548
REMARK  216  A    between atoms: _547  and  _550
REMARK  217  A    between atoms: _550  and  _551
REMARK  218  A    between atoms: _554  and  _556
REMARK  219  A    between atoms: _556  and  _557
REMARK  220  A    between atoms: _556  and  _559
REMARK  221  A    between atoms: _559  and  _560
REMARK  222  A    between atoms: _563  and  _565
REMARK  223  A    between atoms: _565  and  _566
REMARK  224  A    between atoms: _565  and  _568
REMARK  225  A    between atoms: _568  and  _569
REMARK  226  A    between atoms: _574  and  _575
REMARK  227  A    between atoms: _577  and  _579
REMARK  228  A    between atoms: _579  and  _580
REMARK  229  A    between atoms: _582  and  _584
REMARK  230  A    between atoms: _584  and  _585
REMARK  231  A    between atoms: _588  and  _590
REMARK  232  A    between atoms: _590  and  _591
REMARK  233  A    between atoms: _590  and  _593
REMARK  234  A    between atoms: _593  and  _594
REMARK  235  A    between atoms: _597  and  _599
REMARK  236  A    between atoms: _599  and  _600
REMARK  237  A    between atoms: _599  and  _602
REMARK  238  A    between atoms: _602  and  _603
REMARK  239  A    between atoms: _605  and  _607
REMARK  240  A    between atoms: _607  and  _608
REMARK  241  A    between atoms: _607  and  _610
REMARK  242  A    between atoms: _613  and  _615
REMARK  243  A    between atoms: _615  and  _616
REMARK  244  A    between atoms: _615  and  _618
REMARK  245  A    between atoms: _618  and  _619
REMARK  246  A    between atoms: _624  and  _626
REMARK  247  A    between atoms: _626  and  _627
REMARK  248  A    between atoms: _626  and  _629
REMARK  249  A    between atoms: _629  and  _630
REMARK  250  A    between atoms: _640  and  _642
REMARK  251  A    between atoms: _642  and  _643
REMARK  252  A    between atoms: _642  and  _645
REMARK  253  A    between atoms: _645  and  _646
REMARK  254  A    between atoms: _646  and  _647
REMARK  255  A    between atoms: _649  and  _651
REMARK  256  A    between atoms: _651  and  _652
REMARK  257  A    between atoms: _651  and  _654
REMARK  258  A    between atoms: _654  and  _655
REMARK  259  A    between atoms: _658  and  _660
REMARK  260  A    between atoms: _660  and  _661
REMARK  261  A    between atoms: _660  and  _663
REMARK  262  A    between atoms: _663  and  _664
REMARK  263  A    between atoms: _669  and  _671
REMARK  264  A    between atoms: _671  and  _672
REMARK  265  A    between atoms: _674  and  _676
REMARK  266  A    between atoms: _676  and  _677
REMARK  267  A    between atoms: _676  and  _679
REMARK  268  A    between atoms: _679  and  _680
REMARK  269  A    between atoms: _685  and  _686
REMARK  270  A    between atoms: _688  and  _690
REMARK  271  A    between atoms: _690  and  _691
REMARK  272  A    between atoms: _690  and  _693
REMARK  273  A    between atoms: _693  and  _694
REMARK  274  A    between atoms: _694  and  _695
REMARK  275  A    between atoms: _698  and  _700
REMARK  276  A    between atoms: _700  and  _701
REMARK  277  A    between atoms: _700  and  _703
REMARK  278  A    between atoms: _703  and  _704
REMARK                            x       y       z     vdW  Elec       q    Type
REMARK                         _______ _______ _______ _____ _____    ______ ____
ROOT
ATOM      1  O   HOH     1      -7.278  60.710  72.423  0.00  0.00    +0.000 OA
ENDROOT
TORSDOF 0
REMARK  Name = ../refined-set-2016/1h23/1h23_pocket.pdb
REMARK  278 active torsions:
REMARK  status: ('A' for Active; 'I' for Inactive)
REMARK    1  A    between atoms: _1  and  _3
REMARK    2  A    between atoms: _3  and  _4
REMARK    3  A    between atoms: _3  and  _6
REMARK    4  A    between atoms: _6  and  _7
REMARK    5  A    between atoms: _7  and  _8
REMARK    6  A    between atoms: _13  and  _15
REMARK    7  A    between atoms: _15  and  _16
REMARK    8  A    between atoms: _15  and  _18
REMARK    9  A    between atoms: _18  and  _19
REMARK   10  A    between atoms: _24  and  _25
REMARK   11  A    between atoms: _27  and  _29
REMARK   12  A    between atoms: _29  and  _30
REMARK   13  A    between atoms: _29  and  _32
REMARK   14  A    between atoms: _35  and  _37
REMARK   15  A    between atoms: _37  and  _38
REMARK   16  A    between atoms: _37  and  _40
REMARK   17  A    between atoms: _40  and  _41
REMARK   18  A    between atoms: _44  and  _46
REMARK   19  A    between atoms: _46  and  _47
REMARK   20  A    between atoms: _46  and  _49
REMARK   21  A    between atoms: _49  and  _50
REMARK   22  A    between atoms: _50  and  _51
REMARK   23  A    between atoms: _54  and  _56
REMARK   24  A    between atoms: _56  and  _57
REMARK   25  A    between atoms: _56  and  _59
REMARK   26  A    between atoms: _59  and  _60
REMARK   27  A    between atoms: _60  and  _61
REMARK   28  A    between atoms: _66  and  _68
REMARK   29  A    between atoms: _68  and  _69
REMARK   30  A    between atoms: _68  and  _71
REMARK   31  A    between atoms: _71  and  _72
REMARK   32  A    between atoms: _78  and  _80
REMARK   33  A    between atoms: _80  and  _81
REMARK   34  A    between atoms: _83  and  _85
REMARK   35  A    between atoms: _85  and  _86
REMARK   36  A    between atoms: _85  and  _88
REMARK   37  A    between atoms: _88  and  _89
REMARK   38  A    between atoms: _91  and  _93
REMARK   39  A    between atoms: _93  and  _94
REMARK   40  A    between atoms: _93  and  _96
REMARK   41  A    between atoms: _96  and  _97
REMARK   42  A    between atoms: _97  and  _98
REMARK   43  A    between atoms: _100  and  _102
REMARK   44  A    between atoms: _102  and  _103
REMARK   45  A    between atoms: _102  and  _105
REMARK   46  A    between atoms: _105  and  _106
REMARK   47  A    between atoms: _116  and  _118
REMARK   48  A    between atoms: _118  and  _119
REMARK   49  A    between atoms: _118  and  _121
REMARK   50  A    between atoms: _121  and  _122
REMARK   51  A    between atoms: _128  and  _129
REMARK   52  A    between atoms: _134  and  _136
REMARK   53  A    between atoms: _136  and  _137
REMARK   54  A    between atoms: _136  and  _139
REMARK   55  A    between atoms: _139  and  _140
REMARK   56  A    between atoms: _150  and  _152
REMARK   57  A    between atoms: _152  and  _153
REMARK   58  A    between atoms: _152  and  _155
REMARK   59  A    between atoms: _155  and  _156
REMARK   60  A    between atoms: _159  and  _161
REMARK   61  A    between atoms: _161  and  _162
REMARK   62  A    between atoms: _161  and  _164
REMARK   63  A    between atoms: _164  and  _165
REMARK   64  A    between atoms: _170  and  _171
REMARK   65  A    between atoms: _173  and  _175
REMARK   66  A    between atoms: _175  and  _176
REMARK   67  A    between atoms: _178  and  _180
REMARK   68  A    between atoms: _180  and  _181
REMARK   69  A    between atoms: _183  and  _185
REMARK   70  A    between atoms: _185  and  _186
REMARK   71  A    between atoms: _188  and  _190
REMARK   72  A    between atoms: _190  and  _191
REMARK   73  A    between atoms: _190  and  _193
REMARK   74  A    between atoms: _193  and  _194
REMARK   75  A    between atoms: _200  and  _202
REMARK   76  A    between atoms: _202  and  _203
REMARK   77  A    between atoms: _202  and  _205
REMARK   78  A    between atoms: _205  and  _206
REMARK   79  A    between atoms: _211  and  _212
REMARK   80  A    between atoms: _214  and  _216
REMARK   81  A    between atoms: _216  and  _217
REMARK   82  A    between atoms: _216  and  _219
REMARK   83  A    between atoms: _219  and  _220
REMARK   84  A    between atoms: _222  and  _224
REMARK   85  A    between atoms: _224  and  _225
REMARK   86  A    between atoms: _227  and  _229
REMARK   87  A    between atoms: _229  and  _230
REMARK   88  A    between atoms: _229  and  _232
REMARK   89  A    between atoms: _232  and  _233
REMARK   90  A    between atoms: _235  and  _237
REMARK   91  A    between atoms: _237  and  _238
REMARK   92  A    between atoms: _237  and  _240
REMARK   93  A    between atoms: _240  and  _241
REMARK   94  A    between atoms: _243  and  _245
REMARK   95  A    between atoms: _245  and  _246
REMARK   96  A    between atoms: _245  and  _248
REMARK   97  A    between atoms: _248  and  _249
REMARK   98  A    between atoms: _252  and  _254
REMARK   99  A    between atoms: _254  and  _255
REMARK  100  A    between atoms: _254  and  _257
REMARK  101  A    between atoms: _257  and  _258
REMARK  102  A    between atoms: _261  and  _263
REMARK  103  A    between atoms: _263  and  _264
REMARK  104  A    between atoms: _263  and  _266
REMARK  105  A    between atoms: _269  and  _271
REMARK  106  A    between atoms: _271  and  _272
REMARK  107  A    between atoms: _271  and  _274
REMARK  108  A    between atoms: _274  and  _275
REMARK  109  A    between atoms: _280  and  _281
REMARK  110  A    between atoms: _283  and  _285
REMARK  111  A    between atoms: _285  and  _286
REMARK  112  A    between atoms: _285  and  _288
REMARK  113  A    between atoms: _288  and  _289
REMARK  114  A    between atoms: _294  and  _295
REMARK  115  A    between atoms: _297  and  _299
REMARK  116  A    between atoms: _299  and  _300
REMARK  117  A    between atoms: _299  and  _302
REMARK  118  A    between atoms: _305  and  _307
REMARK  119  A    between atoms: _307  and  _308
REMARK  120  A    between atoms: _307  and  _310
REMARK  121  A    between atoms: _310  and  _311
REMARK  122  A    between atoms: _311  and  _312
REMARK  123  A    between atoms: _315  and  _317
REMARK  124  A    between atoms: _317  and  _318
REMARK  125  A    between atoms: _317  and  _320
REMARK  126  A    between atoms: _320  and  _321
REMARK  127  A    between atoms: _323  and  _325
REMARK  128  A    between atoms: _325  and  _326
REMARK  129  A    between atoms: _329  and  _331
REMARK  130  A    between atoms: _331  and  _332
REMARK  131  A    between atoms: _334  and  _336
REMARK  132  A    between atoms: _336  and  _337
REMARK  133  A    between atoms: _336  and  _339
REMARK  134  A    between atoms: _339  and  _340
REMARK  135  A    between atoms: _340  and  _341
REMARK  136  A    between atoms: _346  and  _348
REMARK  137  A    between atoms: _348  and  _349
REMARK  138  A    between atoms: _348  and  _351
REMARK  139  A    between atoms: _351  and  _352
REMARK  140  A    between atoms: _354  and  _356
REMARK  141  A    between atoms: _356  and  _357
REMARK  142  A    between atoms: _356  and  _359
REMARK  143  A    between atoms: _359  and  _360
REMARK  144  A    between atoms: _360  and  _361
REMARK  145  A    between atoms: _364  and  _366
REMARK  146  A    between atoms: _366  and  _367
REMARK  147  A    between atoms: _366  and  _369
REMARK  148  A    between atoms: _369  and  _370
REMARK  149  A    between atoms: _380  and  _382
REMARK  150  A    between atoms: _382  and  _383
REMARK  151  A    between atoms: _382  and  _385
REMARK  152  A    between atoms: _385  and  _386
REMARK  153  A    between atoms: _391  and  _393
REMARK  154  A    between atoms: _393  and  _394
REMARK  155  A    between atoms: _393  and  _396
REMARK  156  A    between atoms: _396  and  _397
REMARK  157  A    between atoms: _400  and  _402
REMARK  158  A    between atoms: _402  and  _403
REMARK  159  A    between atoms: _402  and  _405
REMARK  160  A    between atoms: _405  and  _406
REMARK  161  A    between atoms: _412  and  _414
REMARK  162  A    between atoms: _414  and  _415
REMARK  163  A    between atoms: _414  and  _417
REMARK  164  A    between atoms: _417  and  _418
REMARK  165  A    between atoms: _421  and  _423
REMARK  166  A    between atoms: _423  and  _424
REMARK  167  A    between atoms: _423  and  _426
REMARK  168  A    between atoms: _426  and  _427
REMARK  169  A    between atoms: _429  and  _431
REMARK  170  A    between atoms: _431  and  _432
REMARK  171  A    between atoms: _431  and  _434
REMARK  172  A    between atoms: _434  and  _435
REMARK  173  A    between atoms: _438  and  _440
REMARK  174  A    between atoms: _440  and  _441
REMARK  175  A    between atoms: _440  and  _443
REMARK  176  A    between atoms: _443  and  _444
REMARK  177  A    between atoms: _450  and  _452
REMARK  178  A    between atoms: _452  and  _453
REMARK  179  A    between atoms: _452  and  _455
REMARK  180  A    between atoms: _455  and  _456
REMARK  181  A    between atoms: _456  and  _457
REMARK  182  A    between atoms: _457  and  _458
REMARK  183  A    between atoms: _467  and  _469
REMARK  184  A    between atoms: _469  and  _470
REMARK  185  A    between atoms: _469  and  _472
REMARK  186  A    between atoms: _472  and  _473
REMARK  187  A    between atoms: _479  and  _481
REMARK  188  A    between atoms: _481  and  _482
REMARK  189  A    between atoms: _481  and  _484
REMARK  190  A    between atoms: _484  and  _485
REMARK  191  A    between atoms: _487  and  _489
REMARK  192  A    between atoms: _489  and  _490
REMARK  193  A    between atoms: _489  and  _492
REMARK  194  A    between atoms: _492  and  _493
REMARK  195  A    between atoms: _498  and  _500
REMARK  196  A    between atoms: _500  and  _501
REMARK  197  A    between atoms: _500  and  _503
REMARK  198  A    between atoms: _503  and  _504
REMARK  199  A    between atoms: _504  and  _505
REMARK  200  A    between atoms: _508  and  _510
REMARK  201  A    between atoms: _510  and  _511
REMARK  202  A    between atoms: _513  and  _515
REMARK  203  A    between atoms: _515  and  _516
REMARK  204  A    between atoms: _515  and  _518
REMARK  205  A    between atoms: _518  and  _519
REMARK  206  A    between atoms: _521  and  _523
REMARK  207  A    between atoms: _523  and  _524
REMARK  208  A    between atoms: _523  and  _526
REMARK  209  A    between atoms: _526  and  _527
REMARK  210  A    between atoms: _533  and  _535
REMARK  211  A    between atoms: _535  and  _536
REMARK  212  A    between atoms: _535  and  _538
REMARK  213  A    between atoms: _538  and  _539
REMARK  214  A    between atoms: _545  and  _547
REMARK  215  A    between atoms: _547  and  _548
REMARK  216  A    between atoms: _547  and  _550
REMARK  217  A    between atoms: _550  and  _551
REMARK  218  A    between atoms: _554  and  _556
REMARK  219  A    between atoms: _556  and  _557
REMARK  220  A    between atoms: _556  and  _559
REMARK  221  A    between atoms: _559  and  _560
REMARK  222  A    between atoms: _563  and  _565
REMARK  223  A    between atoms: _565  and  _566
REMARK  224  A    between atoms: _565  and  _568
REMARK  225  A    between atoms: _568  and  _569
REMARK  226  A    between atoms: _574  and  _575
REMARK  227  A    between atoms: _577  and  _579
REMARK  228  A    between atoms: _579  and  _580
REMARK  229  A    between atoms: _582  and  _584
REMARK  230  A    between atoms: _584  and  _585
REMARK  231  A    between atoms: _588  and  _590
REMARK  232  A    between atoms: _590  and  _591
REMARK  233  A    between atoms: _590  and  _593
REMARK  234  A    between atoms: _593  and  _594
REMARK  235  A    between atoms: _597  and  _599
REMARK  236  A    between atoms: _599  and  _600
REMARK  237  A    between atoms: _599  and  _602
REMARK  238  A    between atoms: _602  and  _603
REMARK  239  A    between atoms: _605  and  _607
REMARK  240  A    between atoms: _607  and  _608
REMARK  241  A    between atoms: _607  and  _610
REMARK  242  A    between atoms: _613  and  _615
REMARK  243  A    between atoms: _615  and  _616
REMARK  244  A    between atoms: _615  and  _618
REMARK  245  A    between atoms: _618  and  _619
REMARK  246  A    between atoms: _624  and  _626
REMARK  247  A    between atoms: _626  and  _627
REMARK  248  A    between atoms: _626  and  _629
REMARK  249  A    between atoms: _629  and  _630
REMARK  250  A    between atoms: _640  and  _642
REMARK  251  A    between atoms: _642  and  _643
REMARK  252  A    between atoms: _642  and  _645
REMARK  253  A    between atoms: _645  and  _646
REMARK  254  A    between atoms: _646  and  _647
REMARK  255  A    between atoms: _649  and  _651
REMARK  256  A    between atoms: _651  and  _652
REMARK  257  A    between atoms: _651  and  _654
REMARK  258  A    between atoms: _654  and  _655
REMARK  259  A    between atoms: _658  and  _660
REMARK  260  A    between atoms: _660  and  _661
REMARK  261  A    between atoms: _660  and  _663
REMARK  262  A    between atoms: _663  and  _664
REMARK  263  A    between atoms: _669  and  _671
REMARK  264  A    between atoms: _671  and  _672
REMARK  265  A    between atoms: _674  and  _676
REMARK  266  A    between atoms: _676  and  _677
REMARK  267  A    between atoms: _676  and  _679
REMARK  268  A    between atoms: _679  and  _680
REMARK  269  A    between atoms: _685  and  _686
REMARK  270  A    between atoms: _688  and  _690
REMARK  271  A    between atoms: _690  and  _691
REMARK  272  A    between atoms: _690  and  _693
REMARK  273  A    between atoms: _693  and  _694
REMARK  274  A    between atoms: _694  and  _695
REMARK  275  A    between atoms: _698  and  _700
REMARK  276  A    between atoms: _700  and  _701
REMARK  277  A    between atoms: _700  and  _703
REMARK  278  A    between atoms: _703  and  _704
REMARK                            x       y       z     vdW  Elec       q    Type
REMARK                         _______ _______ _______ _____ _____    ______ ____
ROOT
ATOM      1  O   HOH     1      -2.211  57.484  67.061  0.00  0.00    +0.000 OA
ENDROOT
TORSDOF 0
REMARK  Name = ../refined-set-2016/1h23/1h23_pocket.pdb
REMARK  278 active torsions:
REMARK  status: ('A' for Active; 'I' for Inactive)
REMARK    1  A    between atoms: _1  and  _3
REMARK    2  A    between atoms: _3  and  _4
REMARK    3  A    between atoms: _3  and  _6
REMARK    4  A    between atoms: _6  and  _7
REMARK    5  A    between atoms: _7  and  _8
REMARK    6  A    between atoms: _13  and  _15
REMARK    7  A    between atoms: _15  and  _16
REMARK    8  A    between atoms: _15  and  _18
REMARK    9  A    between atoms: _18  and  _19
REMARK   10  A    between atoms: _24  and  _25
REMARK   11  A    between atoms: _27  and  _29
REMARK   12  A    between atoms: _29  and  _30
REMARK   13  A    between atoms: _29  and  _32
REMARK   14  A    between atoms: _35  and  _37
REMARK   15  A    between atoms: _37  and  _38
REMARK   16  A    between atoms: _37  and  _40
REMARK   17  A    between atoms: _40  and  _41
REMARK   18  A    between atoms: _44  and  _46
REMARK   19  A    between atoms: _46  and  _47
REMARK   20  A    between atoms: _46  and  _49
REMARK   21  A    between atoms: _49  and  _50
REMARK   22  A    between atoms: _50  and  _51
REMARK   23  A    between atoms: _54  and  _56
REMARK   24  A    between atoms: _56  and  _57
REMARK   25  A    between atoms: _56  and  _59
REMARK   26  A    between atoms: _59  and  _60
REMARK   27  A    between atoms: _60  and  _61
REMARK   28  A    between atoms: _66  and  _68
REMARK   29  A    between atoms: _68  and  _69
REMARK   30  A    between atoms: _68  and  _71
REMARK   31  A    between atoms: _71  and  _72
REMARK   32  A    between atoms: _78  and  _80
REMARK   33  A    between atoms: _80  and  _81
REMARK   34  A    between atoms: _83  and  _85
REMARK   35  A    between atoms: _85  and  _86
REMARK   36  A    between atoms: _85  and  _88
REMARK   37  A    between atoms: _88  and  _89
REMARK   38  A    between atoms: _91  and  _93
REMARK   39  A    between atoms: _93  and  _94
REMARK   40  A    between atoms: _93  and  _96
REMARK   41  A    between atoms: _96  and  _97
REMARK   42  A    between atoms: _97  and  _98
REMARK   43  A    between atoms: _100  and  _102
REMARK   44  A    between atoms: _102  and  _103
REMARK   45  A    between atoms: _102  and  _105
REMARK   46  A    between atoms: _105  and  _106
REMARK   47  A    between atoms: _116  and  _118
REMARK   48  A    between atoms: _118  and  _119
REMARK   49  A    between atoms: _118  and  _121
REMARK   50  A    between atoms: _121  and  _122
REMARK   51  A    between atoms: _128  and  _129
REMARK   52  A    between atoms: _134  and  _136
REMARK   53  A    between atoms: _136  and  _137
REMARK   54  A    between atoms: _136  and  _139
REMARK   55  A    between atoms: _139  and  _140
REMARK   56  A    between atoms: _150  and  _152
REMARK   57  A    between atoms: _152  and  _153
REMARK   58  A    between atoms: _152  and  _155
REMARK   59  A    between atoms: _155  and  _156
REMARK   60  A    between atoms: _159  and  _161
REMARK   61  A    between atoms: _161  and  _162
REMARK   62  A    between atoms: _161  and  _164
REMARK   63  A    between atoms: _164  and  _165
REMARK   64  A    between atoms: _170  and  _171
REMARK   65  A    between atoms: _173  and  _175
REMARK   66  A    between atoms: _175  and  _176
REMARK   67  A    between atoms: _178  and  _180
REMARK   68  A    between atoms: _180  and  _181
REMARK   69  A    between atoms: _183  and  _185
REMARK   70  A    between atoms: _185  and  _186
REMARK   71  A    between atoms: _188  and  _190
REMARK   72  A    between atoms: _190  and  _191
REMARK   73  A    between atoms: _190  and  _193
REMARK   74  A    between atoms: _193  and  _194
REMARK   75  A    between atoms: _200  and  _202
REMARK   76  A    between atoms: _202  and  _203
REMARK   77  A    between atoms: _202  and  _205
REMARK   78  A    between atoms: _205  and  _206
REMARK   79  A    between atoms: _211  and  _212
REMARK   80  A    between atoms: _214  and  _216
REMARK   81  A    between atoms: _216  and  _217
REMARK   82  A    between atoms: _216  and  _219
REMARK   83  A    between atoms: _219  and  _220
REMARK   84  A    between atoms: _222  and  _224
REMARK   85  A    between atoms: _224  and  _225
REMARK   86  A    between atoms: _227  and  _229
REMARK   87  A    between atoms: _229  and  _230
REMARK   88  A    between atoms: _229  and  _232
REMARK   89  A    between atoms: _232  and  _233
REMARK   90  A    between atoms: _235  and  _237
REMARK   91  A    between atoms: _237  and  _238
REMARK   92  A    between atoms: _237  and  _240
REMARK   93  A    between atoms: _240  and  _241
REMARK   94  A    between atoms: _243  and  _245
REMARK   95  A    between atoms: _245  and  _246
REMARK   96  A    between atoms: _245  and  _248
REMARK   97  A    between atoms: _248  and  _249
REMARK   98  A    between atoms: _252  and  _254
REMARK   99  A    between atoms: _254  and  _255
REMARK  100  A    between atoms: _254  and  _257
REMARK  101  A    between atoms: _257  and  _258
REMARK  102  A    between atoms: _261  and  _263
REMARK  103  A    between atoms: _263  and  _264
REMARK  104  A    between atoms: _263  and  _266
REMARK  105  A    between atoms: _269  and  _271
REMARK  106  A    between atoms: _271  and  _272
REMARK  107  A    between atoms: _271  and  _274
REMARK  108  A    between atoms: _274  and  _275
REMARK  109  A    between atoms: _280  and  _281
REMARK  110  A    between atoms: _283  and  _285
REMARK  111  A    between atoms: _285  and  _286
REMARK  112  A    between atoms: _285  and  _288
REMARK  113  A    between atoms: _288  and  _289
REMARK  114  A    between atoms: _294  and  _295
REMARK  115  A    between atoms: _297  and  _299
REMARK  116  A    between atoms: _299  and  _300
REMARK  117  A    between atoms: _299  and  _302
REMARK  118  A    between atoms: _305  and  _307
REMARK  119  A    between atoms: _307  and  _308
REMARK  120  A    between atoms: _307  and  _310
REMARK  121  A    between atoms: _310  and  _311
REMARK  122  A    between atoms: _311  and  _312
REMARK  123  A    between atoms: _315  and  _317
REMARK  124  A    between atoms: _317  and  _318
REMARK  125  A    between atoms: _317  and  _320
REMARK  126  A    between atoms: _320  and  _321
REMARK  127  A    between atoms: _323  and  _325
REMARK  128  A    between atoms: _325  and  _326
REMARK  129  A    between atoms: _329  and  _331
REMARK  130  A    between atoms: _331  and  _332
REMARK  131  A    between atoms: _334  and  _336
REMARK  132  A    between atoms: _336  and  _337
REMARK  133  A    between atoms: _336  and  _339
REMARK  134  A    between atoms: _339  and  _340
REMARK  135  A    between atoms: _340  and  _341
REMARK  136  A    between atoms: _346  and  _348
REMARK  137  A    between atoms: _348  and  _349
REMARK  138  A    between atoms: _348  and  _351
REMARK  139  A    between atoms: _351  and  _352
REMARK  140  A    between atoms: _354  and  _356
REMARK  141  A    between atoms: _356  and  _357
REMARK  142  A    between atoms: _356  and  _359
REMARK  143  A    between atoms: _359  and  _360
REMARK  144  A    between atoms: _360  and  _361
REMARK  145  A    between atoms: _364  and  _366
REMARK  146  A    between atoms: _366  and  _367
REMARK  147  A    between atoms: _366  and  _369
REMARK  148  A    between atoms: _369  and  _370
REMARK  149  A    between atoms: _380  and  _382
REMARK  150  A    between atoms: _382  and  _383
REMARK  151  A    between atoms: _382  and  _385
REMARK  152  A    between atoms: _385  and  _386
REMARK  153  A    between atoms: _391  and  _393
REMARK  154  A    between atoms: _393  and  _394
REMARK  155  A    between atoms: _393  and  _396
REMARK  156  A    between atoms: _396  and  _397
REMARK  157  A    between atoms: _400  and  _402
REMARK  158  A    between atoms: _402  and  _403
REMARK  159  A    between atoms: _402  and  _405
REMARK  160  A    between atoms: _405  and  _406
REMARK  161  A    between atoms: _412  and  _414
REMARK  162  A    between atoms: _414  and  _415
REMARK  163  A    between atoms: _414  and  _417
REMARK  164  A    between atoms: _417  and  _418
REMARK  165  A    between atoms: _421  and  _423
REMARK  166  A    between atoms: _423  and  _424
REMARK  167  A    between atoms: _423  and  _426
REMARK  168  A    between atoms: _426  and  _427
REMARK  169  A    between atoms: _429  and  _431
REMARK  170  A    between atoms: _431  and  _432
REMARK  171  A    between atoms: _431  and  _434
REMARK  172  A    between atoms: _434  and  _435
REMARK  173  A    between atoms: _438  and  _440
REMARK  174  A    between atoms: _440  and  _441
REMARK  175  A    between atoms: _440  and  _443
REMARK  176  A    between atoms: _443  and  _444
REMARK  177  A    between atoms: _450  and  _452
REMARK  178  A    between atoms: _452  and  _453
REMARK  179  A    between atoms: _452  and  _455
REMARK  180  A    between atoms: _455  and  _456
REMARK  181  A    between atoms: _456  and  _457
REMARK  182  A    between atoms: _457  and  _458
REMARK  183  A    between atoms: _467  and  _469
REMARK  184  A    between atoms: _469  and  _470
REMARK  185  A    between atoms: _469  and  _472
REMARK  186  A    between atoms: _472  and  _473
REMARK  187  A    between atoms: _479  and  _481
REMARK  188  A    between atoms: _481  and  _482
REMARK  189  A    between atoms: _481  and  _484
REMARK  190  A    between atoms: _484  and  _485
REMARK  191  A    between atoms: _487  and  _489
REMARK  192  A    between atoms: _489  and  _490
REMARK  193  A    between atoms: _489  and  _492
REMARK  194  A    between atoms: _492  and  _493
REMARK  195  A    between atoms: _498  and  _500
REMARK  196  A    between atoms: _500  and  _501
REMARK  197  A    between atoms: _500  and  _503
REMARK  198  A    between atoms: _503  and  _504
REMARK  199  A    between atoms: _504  and  _505
REMARK  200  A    between atoms: _508  and  _510
REMARK  201  A    between atoms: _510  and  _511
REMARK  202  A    between atoms: _513  and  _515
REMARK  203  A    between atoms: _515  and  _516
REMARK  204  A    between atoms: _515  and  _518
REMARK  205  A    between atoms: _518  and  _519
REMARK  206  A    between atoms: _521  and  _523
REMARK  207  A    between atoms: _523  and  _524
REMARK  208  A    between atoms: _523  and  _526
REMARK  209  A    between atoms: _526  and  _527
REMARK  210  A    between atoms: _533  and  _535
REMARK  211  A    between atoms: _535  and  _536
REMARK  212  A    between atoms: _535  and  _538
REMARK  213  A    between atoms: _538  and  _539
REMARK  214  A    between atoms: _545  and  _547
REMARK  215  A    between atoms: _547  and  _548
REMARK  216  A    between atoms: _547  and  _550
REMARK  217  A    between atoms: _550  and  _551
REMARK  218  A    between atoms: _554  and  _556
REMARK  219  A    between atoms: _556  and  _557
REMARK  220  A    between atoms: _556  and  _559
REMARK  221  A    between atoms: _559  and  _560
REMARK  222  A    between atoms: _563  and  _565
REMARK  223  A    between atoms: _565  and  _566
REMARK  224  A    between atoms: _565  and  _568
REMARK  225  A    between atoms: _568  and  _569
REMARK  226  A    between atoms: _574  and  _575
REMARK  227  A    between atoms: _577  and  _579
REMARK  228  A    between atoms: _579  and  _580
REMARK  229  A    between atoms: _582  and  _584
REMARK  230  A    between atoms: _584  and  _585
REMARK  231  A    between atoms: _588  and  _590
REMARK  232  A    between atoms: _590  and  _591
REMARK  233  A    between atoms: _590  and  _593
REMARK  234  A    between atoms: _593  and  _594
REMARK  235  A    between atoms: _597  and  _599
REMARK  236  A    between atoms: _599  and  _600
REMARK  237  A    between atoms: _599  and  _602
REMARK  238  A    between atoms: _602  and  _603
REMARK  239  A    between atoms: _605  and  _607
REMARK  240  A    between atoms: _607  and  _608
REMARK  241  A    between atoms: _607  and  _610
REMARK  242  A    between atoms: _613  and  _615
REMARK  243  A    between atoms: _615  and  _616
REMARK  244  A    between atoms: _615  and  _618
REMARK  245  A    between atoms: _618  and  _619
REMARK  246  A    between atoms: _624  and  _626
REMARK  247  A    between atoms: _626  and  _627
REMARK  248  A    between atoms: _626  and  _629
REMARK  249  A    between atoms: _629  and  _630
REMARK  250  A    between atoms: _640  and  _642
REMARK  251  A    between atoms: _642  and  _643
REMARK  252  A    between atoms: _642  and  _645
REMARK  253  A    between atoms: _645  and  _646
REMARK  254  A    between atoms: _646  and  _647
REMARK  255  A    between atoms: _649  and  _651
REMARK  256  A    between atoms: _651  and  _652
REMARK  257  A    between atoms: _651  and  _654
REMARK  258  A    between atoms: _654  and  _655
REMARK  259  A    between atoms: _658  and  _660
REMARK  260  A    between atoms: _660  and  _661
REMARK  261  A    between atoms: _660  and  _663
REMARK  262  A    between atoms: _663  and  _664
REMARK  263  A    between atoms: _669  and  _671
REMARK  264  A    between atoms: _671  and  _672
REMARK  265  A    between atoms: _674  and  _676
REMARK  266  A    between atoms: _676  and  _677
REMARK  267  A    between atoms: _676  and  _679
REMARK  268  A    between atoms: _679  and  _680
REMARK  269  A    between atoms: _685  and  _686
REMARK  270  A    between atoms: _688  and  _690
REMARK  271  A    between atoms: _690  and  _691
REMARK  272  A    between atoms: _690  and  _693
REMARK  273  A    between atoms: _693  and  _694
REMARK  274  A    between atoms: _694  and  _695
REMARK  275  A    between atoms: _698  and  _700
REMARK  276  A    between atoms: _700  and  _701
REMARK  277  A    between atoms: _700  and  _703
REMARK  278  A    between atoms: _703  and  _704
REMARK                            x       y       z     vdW  Elec       q    Type
REMARK                         _______ _______ _______ _____ _____    ______ ____
ROOT
ATOM      1  O   HOH     1      -1.118  53.444  74.517  0.00  0.00    +0.000 OA
ENDROOT
TORSDOF 0
REMARK  Name = ../refined-set-2016/1h23/1h23_pocket.pdb
REMARK  278 active torsions:
REMARK  status: ('A' for Active; 'I' for Inactive)
REMARK    1  A    between atoms: _1  and  _3
REMARK    2  A    between atoms: _3  and  _4
REMARK    3  A    between atoms: _3  and  _6
REMARK    4  A    between atoms: _6  and  _7
REMARK    5  A    between atoms: _7  and  _8
REMARK    6  A    between atoms: _13  and  _15
REMARK    7  A    between atoms: _15  and  _16
REMARK    8  A    between atoms: _15  and  _18
REMARK    9  A    between atoms: _18  and  _19
REMARK   10  A    between atoms: _24  and  _25
REMARK   11  A    between atoms: _27  and  _29
REMARK   12  A    between atoms: _29  and  _30
REMARK   13  A    between atoms: _29  and  _32
REMARK   14  A    between atoms: _35  and  _37
REMARK   15  A    between atoms: _37  and  _38
REMARK   16  A    between atoms: _37  and  _40
REMARK   17  A    between atoms: _40  and  _41
REMARK   18  A    between atoms: _44  and  _46
REMARK   19  A    between atoms: _46  and  _47
REMARK   20  A    between atoms: _46  and  _49
REMARK   21  A    between atoms: _49  and  _50
REMARK   22  A    between atoms: _50  and  _51
REMARK   23  A    between atoms: _54  and  _56
REMARK   24  A    between atoms: _56  and  _57
REMARK   25  A    between atoms: _56  and  _59
REMARK   26  A    between atoms: _59  and  _60
REMARK   27  A    between atoms: _60  and  _61
REMARK   28  A    between atoms: _66  and  _68
REMARK   29  A    between atoms: _68  and  _69
REMARK   30  A    between atoms: _68  and  _71
REMARK   31  A    between atoms: _71  and  _72
REMARK   32  A    between atoms: _78  and  _80
REMARK   33  A    between atoms: _80  and  _81
REMARK   34  A    between atoms: _83  and  _85
REMARK   35  A    between atoms: _85  and  _86
REMARK   36  A    between atoms: _85  and  _88
REMARK   37  A    between atoms: _88  and  _89
REMARK   38  A    between atoms: _91  and  _93
REMARK   39  A    between atoms: _93  and  _94
REMARK   40  A    between atoms: _93  and  _96
REMARK   41  A    between atoms: _96  and  _97
REMARK   42  A    between atoms: _97  and  _98
REMARK   43  A    between atoms: _100  and  _102
REMARK   44  A    between atoms: _102  and  _103
REMARK   45  A    between atoms: _102  and  _105
REMARK   46  A    between atoms: _105  and  _106
REMARK   47  A    between atoms: _116  and  _118
REMARK   48  A    between atoms: _118  and  _119
REMARK   49  A    between atoms: _118  and  _121
REMARK   50  A    between atoms: _121  and  _122
REMARK   51  A    between atoms: _128  and  _129
REMARK   52  A    between atoms: _134  and  _136
REMARK   53  A    between atoms: _136  and  _137
REMARK   54  A    between atoms: _136  and  _139
REMARK   55  A    between atoms: _139  and  _140
REMARK   56  A    between atoms: _150  and  _152
REMARK   57  A    between atoms: _152  and  _153
REMARK   58  A    between atoms: _152  and  _155
REMARK   59  A    between atoms: _155  and  _156
REMARK   60  A    between atoms: _159  and  _161
REMARK   61  A    between atoms: _161  and  _162
REMARK   62  A    between atoms: _161  and  _164
REMARK   63  A    between atoms: _164  and  _165
REMARK   64  A    between atoms: _170  and  _171
REMARK   65  A    between atoms: _173  and  _175
REMARK   66  A    between atoms: _175  and  _176
REMARK   67  A    between atoms: _178  and  _180
REMARK   68  A    between atoms: _180  and  _181
REMARK   69  A    between atoms: _183  and  _185
REMARK   70  A    between atoms: _185  and  _186
REMARK   71  A    between atoms: _188  and  _190
REMARK   72  A    between atoms: _190  and  _191
REMARK   73  A    between atoms: _190  and  _193
REMARK   74  A    between atoms: _193  and  _194
REMARK   75  A    between atoms: _200  and  _202
REMARK   76  A    between atoms: _202  and  _203
REMARK   77  A    between atoms: _202  and  _205
REMARK   78  A    between atoms: _205  and  _206
REMARK   79  A    between atoms: _211  and  _212
REMARK   80  A    between atoms: _214  and  _216
REMARK   81  A    between atoms: _216  and  _217
REMARK   82  A    between atoms: _216  and  _219
REMARK   83  A    between atoms: _219  and  _220
REMARK   84  A    between atoms: _222  and  _224
REMARK   85  A    between atoms: _224  and  _225
REMARK   86  A    between atoms: _227  and  _229
REMARK   87  A    between atoms: _229  and  _230
REMARK   88  A    between atoms: _229  and  _232
REMARK   89  A    between atoms: _232  and  _233
REMARK   90  A    between atoms: _235  and  _237
REMARK   91  A    between atoms: _237  and  _238
REMARK   92  A    between atoms: _237  and  _240
REMARK   93  A    between atoms: _240  and  _241
REMARK   94  A    between atoms: _243  and  _245
REMARK   95  A    between atoms: _245  and  _246
REMARK   96  A    between atoms: _245  and  _248
REMARK   97  A    between atoms: _248  and  _249
REMARK   98  A    between atoms: _252  and  _254
REMARK   99  A    between atoms: _254  and  _255
REMARK  100  A    between atoms: _254  and  _257
REMARK  101  A    between atoms: _257  and  _258
REMARK  102  A    between atoms: _261  and  _263
REMARK  103  A    between atoms: _263  and  _264
REMARK  104  A    between atoms: _263  and  _266
REMARK  105  A    between atoms: _269  and  _271
REMARK  106  A    between atoms: _271  and  _272
REMARK  107  A    between atoms: _271  and  _274
REMARK  108  A    between atoms: _274  and  _275
REMARK  109  A    between atoms: _280  and  _281
REMARK  110  A    between atoms: _283  and  _285
REMARK  111  A    between atoms: _285  and  _286
REMARK  112  A    between atoms: _285  and  _288
REMARK  113  A    between atoms: _288  and  _289
REMARK  114  A    between atoms: _294  and  _295
REMARK  115  A    between atoms: _297  and  _299
REMARK  116  A    between atoms: _299  and  _300
REMARK  117  A    between atoms: _299  and  _302
REMARK  118  A    between atoms: _305  and  _307
REMARK  119  A    between atoms: _307  and  _308
REMARK  120  A    between atoms: _307  and  _310
REMARK  121  A    between atoms: _310  and  _311
REMARK  122  A    between atoms: _311  and  _312
REMARK  123  A    between atoms: _315  and  _317
REMARK  124  A    between atoms: _317  and  _318
REMARK  125  A    between atoms: _317  and  _320
REMARK  126  A    between atoms: _320  and  _321
REMARK  127  A    between atoms: _323  and  _325
REMARK  128  A    between atoms: _325  and  _326
REMARK  129  A    between atoms: _329  and  _331
REMARK  130  A    between atoms: _331  and  _332
REMARK  131  A    between atoms: _334  and  _336
REMARK  132  A    between atoms: _336  and  _337
REMARK  133  A    between atoms: _336  and  _339
REMARK  134  A    between atoms: _339  and  _340
REMARK  135  A    between atoms: _340  and  _341
REMARK  136  A    between atoms: _346  and  _348
REMARK  137  A    between atoms: _348  and  _349
REMARK  138  A    between atoms: _348  and  _351
REMARK  139  A    between atoms: _351  and  _352
REMARK  140  A    between atoms: _354  and  _356
REMARK  141  A    between atoms: _356  and  _357
REMARK  142  A    between atoms: _356  and  _359
REMARK  143  A    between atoms: _359  and  _360
REMARK  144  A    between atoms: _360  and  _361
REMARK  145  A    between atoms: _364  and  _366
REMARK  146  A    between atoms: _366  and  _367
REMARK  147  A    between atoms: _366  and  _369
REMARK  148  A    between atoms: _369  and  _370
REMARK  149  A    between atoms: _380  and  _382
REMARK  150  A    between atoms: _382  and  _383
REMARK  151  A    between atoms: _382  and  _385
REMARK  152  A    between atoms: _385  and  _386
REMARK  153  A    between atoms: _391  and  _393
REMARK  154  A    between atoms: _393  and  _394
REMARK  155  A    between atoms: _393  and  _396
REMARK  156  A    between atoms: _396  and  _397
REMARK  157  A    between atoms: _400  and  _402
REMARK  158  A    between atoms: _402  and  _403
REMARK  159  A    between atoms: _402  and  _405
REMARK  160  A    between atoms: _405  and  _406
REMARK  161  A    between atoms: _412  and  _414
REMARK  162  A    between atoms: _414  and  _415
REMARK  163  A    between atoms: _414  and  _417
REMARK  164  A    between atoms: _417  and  _418
REMARK  165  A    between atoms: _421  and  _423
REMARK  166  A    between atoms: _423  and  _424
REMARK  167  A    between atoms: _423  and  _426
REMARK  168  A    between atoms: _426  and  _427
REMARK  169  A    between atoms: _429  and  _431
REMARK  170  A    between atoms: _431  and  _432
REMARK  171  A    between atoms: _431  and  _434
REMARK  172  A    between atoms: _434  and  _435
REMARK  173  A    between atoms: _438  and  _440
REMARK  174  A    between atoms: _440  and  _441
REMARK  175  A    between atoms: _440  and  _443
REMARK  176  A    between atoms: _443  and  _444
REMARK  177  A    between atoms: _450  and  _452
REMARK  178  A    between atoms: _452  and  _453
REMARK  179  A    between atoms: _452  and  _455
REMARK  180  A    between atoms: _455  and  _456
REMARK  181  A    between atoms: _456  and  _457
REMARK  182  A    between atoms: _457  and  _458
REMARK  183  A    between atoms: _467  and  _469
REMARK  184  A    between atoms: _469  and  _470
REMARK  185  A    between atoms: _469  and  _472
REMARK  186  A    between atoms: _472  and  _473
REMARK  187  A    between atoms: _479  and  _481
REMARK  188  A    between atoms: _481  and  _482
REMARK  189  A    between atoms: _481  and  _484
REMARK  190  A    between atoms: _484  and  _485
REMARK  191  A    between atoms: _487  and  _489
REMARK  192  A    between atoms: _489  and  _490
REMARK  193  A    between atoms: _489  and  _492
REMARK  194  A    between atoms: _492  and  _493
REMARK  195  A    between atoms: _498  and  _500
REMARK  196  A    between atoms: _500  and  _501
REMARK  197  A    between atoms: _500  and  _503
REMARK  198  A    between atoms: _503  and  _504
REMARK  199  A    between atoms: _504  and  _505
REMARK  200  A    between atoms: _508  and  _510
REMARK  201  A    between atoms: _510  and  _511
REMARK  202  A    between atoms: _513  and  _515
REMARK  203  A    between atoms: _515  and  _516
REMARK  204  A    between atoms: _515  and  _518
REMARK  205  A    between atoms: _518  and  _519
REMARK  206  A    between atoms: _521  and  _523
REMARK  207  A    between atoms: _523  and  _524
REMARK  208  A    between atoms: _523  and  _526
REMARK  209  A    between atoms: _526  and  _527
REMARK  210  A    between atoms: _533  and  _535
REMARK  211  A    between atoms: _535  and  _536
REMARK  212  A    between atoms: _535  and  _538
REMARK  213  A    between atoms: _538  and  _539
REMARK  214  A    between atoms: _545  and  _547
REMARK  215  A    between atoms: _547  and  _548
REMARK  216  A    between atoms: _547  and  _550
REMARK  217  A    between atoms: _550  and  _551
REMARK  218  A    between atoms: _554  and  _556
REMARK  219  A    between atoms: _556  and  _557
REMARK  220  A    between atoms: _556  and  _559
REMARK  221  A    between atoms: _559  and  _560
REMARK  222  A    between atoms: _563  and  _565
REMARK  223  A    between atoms: _565  and  _566
REMARK  224  A    between atoms: _565  and  _568
REMARK  225  A    between atoms: _568  and  _569
REMARK  226  A    between atoms: _574  and  _575
REMARK  227  A    between atoms: _577  and  _579
REMARK  228  A    between atoms: _579  and  _580
REMARK  229  A    between atoms: _582  and  _584
REMARK  230  A    between atoms: _584  and  _585
REMARK  231  A    between atoms: _588  and  _590
REMARK  232  A    between atoms: _590  and  _591
REMARK  233  A    between atoms: _590  and  _593
REMARK  234  A    between atoms: _593  and  _594
REMARK  235  A    between atoms: _597  and  _599
REMARK  236  A    between atoms: _599  and  _600
REMARK  237  A    between atoms: _599  and  _602
REMARK  238  A    between atoms: _602  and  _603
REMARK  239  A    between atoms: _605  and  _607
REMARK  240  A    between atoms: _607  and  _608
REMARK  241  A    between atoms: _607  and  _610
REMARK  242  A    between atoms: _613  and  _615
REMARK  243  A    between atoms: _615  and  _616
REMARK  244  A    between atoms: _615  and  _618
REMARK  245  A    between atoms: _618  and  _619
REMARK  246  A    between atoms: _624  and  _626
REMARK  247  A    between atoms: _626  and  _627
REMARK  248  A    between atoms: _626  and  _629
REMARK  249  A    between atoms: _629  and  _630
REMARK  250  A    between atoms: _640  and  _642
REMARK  251  A    between atoms: _642  and  _643
REMARK  252  A    between atoms: _642  and  _645
REMARK  253  A    between atoms: _645  and  _646
REMARK  254  A    between atoms: _646  and  _647
REMARK  255  A    between atoms: _649  and  _651
REMARK  256  A    between atoms: _651  and  _652
REMARK  257  A    between atoms: _651  and  _654
REMARK  258  A    between atoms: _654  and  _655
REMARK  259  A    between atoms: _658  and  _660
REMARK  260  A    between atoms: _660  and  _661
REMARK  261  A    between atoms: _660  and  _663
REMARK  262  A    between atoms: _663  and  _664
REMARK  263  A    between atoms: _669  and  _671
REMARK  264  A    between atoms: _671  and  _672
REMARK  265  A    between atoms: _674  and  _676
REMARK  266  A    between atoms: _676  and  _677
REMARK  267  A    between atoms: _676  and  _679
REMARK  268  A    between atoms: _679  and  _680
REMARK  269  A    between atoms: _685  and  _686
REMARK  270  A    between atoms: _688  and  _690
REMARK  271  A    between atoms: _690  and  _691
REMARK  272  A    between atoms: _690  and  _693
REMARK  273  A    between atoms: _693  and  _694
REMARK  274  A    between atoms: _694  and  _695
REMARK  275  A    between atoms: _698  and  _700
REMARK  276  A    between atoms: _700  and  _701
REMARK  277  A    between atoms: _700  and  _703
REMARK  278  A    between atoms: _703  and  _704
REMARK                            x       y       z     vdW  Elec       q    Type
REMARK                         _______ _______ _______ _____ _____    ______ ____
ROOT
ATOM      1  O   HOH     1       1.770  53.231  73.862  0.00  0.00    +0.000 OA
ENDROOT
TORSDOF 0
REMARK  Name = ../refined-set-2016/1h23/1h23_pocket.pdb
REMARK  278 active torsions:
REMARK  status: ('A' for Active; 'I' for Inactive)
REMARK    1  A    between atoms: _1  and  _3
REMARK    2  A    between atoms: _3  and  _4
REMARK    3  A    between atoms: _3  and  _6
REMARK    4  A    between atoms: _6  and  _7
REMARK    5  A    between atoms: _7  and  _8
REMARK    6  A    between atoms: _13  and  _15
REMARK    7  A    between atoms: _15  and  _16
REMARK    8  A    between atoms: _15  and  _18
REMARK    9  A    between atoms: _18  and  _19
REMARK   10  A    between atoms: _24  and  _25
REMARK   11  A    between atoms: _27  and  _29
REMARK   12  A    between atoms: _29  and  _30
REMARK   13  A    between atoms: _29  and  _32
REMARK   14  A    between atoms: _35  and  _37
REMARK   15  A    between atoms: _37  and  _38
REMARK   16  A    between atoms: _37  and  _40
REMARK   17  A    between atoms: _40  and  _41
REMARK   18  A    between atoms: _44  and  _46
REMARK   19  A    between atoms: _46  and  _47
REMARK   20  A    between atoms: _46  and  _49
REMARK   21  A    between atoms: _49  and  _50
REMARK   22  A    between atoms: _50  and  _51
REMARK   23  A    between atoms: _54  and  _56
REMARK   24  A    between atoms: _56  and  _57
REMARK   25  A    between atoms: _56  and  _59
REMARK   26  A    between atoms: _59  and  _60
REMARK   27  A    between atoms: _60  and  _61
REMARK   28  A    between atoms: _66  and  _68
REMARK   29  A    between atoms: _68  and  _69
REMARK   30  A    between atoms: _68  and  _71
REMARK   31  A    between atoms: _71  and  _72
REMARK   32  A    between atoms: _78  and  _80
REMARK   33  A    between atoms: _80  and  _81
REMARK   34  A    between atoms: _83  and  _85
REMARK   35  A    between atoms: _85  and  _86
REMARK   36  A    between atoms: _85  and  _88
REMARK   37  A    between atoms: _88  and  _89
REMARK   38  A    between atoms: _91  and  _93
REMARK   39  A    between atoms: _93  and  _94
REMARK   40  A    between atoms: _93  and  _96
REMARK   41  A    between atoms: _96  and  _97
REMARK   42  A    between atoms: _97  and  _98
REMARK   43  A    between atoms: _100  and  _102
REMARK   44  A    between atoms: _102  and  _103
REMARK   45  A    between atoms: _102  and  _105
REMARK   46  A    between atoms: _105  and  _106
REMARK   47  A    between atoms: _116  and  _118
REMARK   48  A    between atoms: _118  and  _119
REMARK   49  A    between atoms: _118  and  _121
REMARK   50  A    between atoms: _121  and  _122
REMARK   51  A    between atoms: _128  and  _129
REMARK   52  A    between atoms: _134  and  _136
REMARK   53  A    between atoms: _136  and  _137
REMARK   54  A    between atoms: _136  and  _139
REMARK   55  A    between atoms: _139  and  _140
REMARK   56  A    between atoms: _150  and  _152
REMARK   57  A    between atoms: _152  and  _153
REMARK   58  A    between atoms: _152  and  _155
REMARK   59  A    between atoms: _155  and  _156
REMARK   60  A    between atoms: _159  and  _161
REMARK   61  A    between atoms: _161  and  _162
REMARK   62  A    between atoms: _161  and  _164
REMARK   63  A    between atoms: _164  and  _165
REMARK   64  A    between atoms: _170  and  _171
REMARK   65  A    between atoms: _173  and  _175
REMARK   66  A    between atoms: _175  and  _176
REMARK   67  A    between atoms: _178  and  _180
REMARK   68  A    between atoms: _180  and  _181
REMARK   69  A    between atoms: _183  and  _185
REMARK   70  A    between atoms: _185  and  _186
REMARK   71  A    between atoms: _188  and  _190
REMARK   72  A    between atoms: _190  and  _191
REMARK   73  A    between atoms: _190  and  _193
REMARK   74  A    between atoms: _193  and  _194
REMARK   75  A    between atoms: _200  and  _202
REMARK   76  A    between atoms: _202  and  _203
REMARK   77  A    between atoms: _202  and  _205
REMARK   78  A    between atoms: _205  and  _206
REMARK   79  A    between atoms: _211  and  _212
REMARK   80  A    between atoms: _214  and  _216
REMARK   81  A    between atoms: _216  and  _217
REMARK   82  A    between atoms: _216  and  _219
REMARK   83  A    between atoms: _219  and  _220
REMARK   84  A    between atoms: _222  and  _224
REMARK   85  A    between atoms: _224  and  _225
REMARK   86  A    between atoms: _227  and  _229
REMARK   87  A    between atoms: _229  and  _230
REMARK   88  A    between atoms: _229  and  _232
REMARK   89  A    between atoms: _232  and  _233
REMARK   90  A    between atoms: _235  and  _237
REMARK   91  A    between atoms: _237  and  _238
REMARK   92  A    between atoms: _237  and  _240
REMARK   93  A    between atoms: _240  and  _241
REMARK   94  A    between atoms: _243  and  _245
REMARK   95  A    between atoms: _245  and  _246
REMARK   96  A    between atoms: _245  and  _248
REMARK   97  A    between atoms: _248  and  _249
REMARK   98  A    between atoms: _252  and  _254
REMARK   99  A    between atoms: _254  and  _255
REMARK  100  A    between atoms: _254  and  _257
REMARK  101  A    between atoms: _257  and  _258
REMARK  102  A    between atoms: _261  and  _263
REMARK  103  A    between atoms: _263  and  _264
REMARK  104  A    between atoms: _263  and  _266
REMARK  105  A    between atoms: _269  and  _271
REMARK  106  A    between atoms: _271  and  _272
REMARK  107  A    between atoms: _271  and  _274
REMARK  108  A    between atoms: _274  and  _275
REMARK  109  A    between atoms: _280  and  _281
REMARK  110  A    between atoms: _283  and  _285
REMARK  111  A    between atoms: _285  and  _286
REMARK  112  A    between atoms: _285  and  _288
REMARK  113  A    between atoms: _288  and  _289
REMARK  114  A    between atoms: _294  and  _295
REMARK  115  A    between atoms: _297  and  _299
REMARK  116  A    between atoms: _299  and  _300
REMARK  117  A    between atoms: _299  and  _302
REMARK  118  A    between atoms: _305  and  _307
REMARK  119  A    between atoms: _307  and  _308
REMARK  120  A    between atoms: _307  and  _310
REMARK  121  A    between atoms: _310  and  _311
REMARK  122  A    between atoms: _311  and  _312
REMARK  123  A    between atoms: _315  and  _317
REMARK  124  A    between atoms: _317  and  _318
REMARK  125  A    between atoms: _317  and  _320
REMARK  126  A    between atoms: _320  and  _321
REMARK  127  A    between atoms: _323  and  _325
REMARK  128  A    between atoms: _325  and  _326
REMARK  129  A    between atoms: _329  and  _331
REMARK  130  A    between atoms: _331  and  _332
REMARK  131  A    between atoms: _334  and  _336
REMARK  132  A    between atoms: _336  and  _337
REMARK  133  A    between atoms: _336  and  _339
REMARK  134  A    between atoms: _339  and  _340
REMARK  135  A    between atoms: _340  and  _341
REMARK  136  A    between atoms: _346  and  _348
REMARK  137  A    between atoms: _348  and  _349
REMARK  138  A    between atoms: _348  and  _351
REMARK  139  A    between atoms: _351  and  _352
REMARK  140  A    between atoms: _354  and  _356
REMARK  141  A    between atoms: _356  and  _357
REMARK  142  A    between atoms: _356  and  _359
REMARK  143  A    between atoms: _359  and  _360
REMARK  144  A    between atoms: _360  and  _361
REMARK  145  A    between atoms: _364  and  _366
REMARK  146  A    between atoms: _366  and  _367
REMARK  147  A    between atoms: _366  and  _369
REMARK  148  A    between atoms: _369  and  _370
REMARK  149  A    between atoms: _380  and  _382
REMARK  150  A    between atoms: _382  and  _383
REMARK  151  A    between atoms: _382  and  _385
REMARK  152  A    between atoms: _385  and  _386
REMARK  153  A    between atoms: _391  and  _393
REMARK  154  A    between atoms: _393  and  _394
REMARK  155  A    between atoms: _393  and  _396
REMARK  156  A    between atoms: _396  and  _397
REMARK  157  A    between atoms: _400  and  _402
REMARK  158  A    between atoms: _402  and  _403
REMARK  159  A    between atoms: _402  and  _405
REMARK  160  A    between atoms: _405  and  _406
REMARK  161  A    between atoms: _412  and  _414
REMARK  162  A    between atoms: _414  and  _415
REMARK  163  A    between atoms: _414  and  _417
REMARK  164  A    between atoms: _417  and  _418
REMARK  165  A    between atoms: _421  and  _423
REMARK  166  A    between atoms: _423  and  _424
REMARK  167  A    between atoms: _423  and  _426
REMARK  168  A    between atoms: _426  and  _427
REMARK  169  A    between atoms: _429  and  _431
REMARK  170  A    between atoms: _431  and  _432
REMARK  171  A    between atoms: _431  and  _434
REMARK  172  A    between atoms: _434  and  _435
REMARK  173  A    between atoms: _438  and  _440
REMARK  174  A    between atoms: _440  and  _441
REMARK  175  A    between atoms: _440  and  _443
REMARK  176  A    between atoms: _443  and  _444
REMARK  177  A    between atoms: _450  and  _452
REMARK  178  A    between atoms: _452  and  _453
REMARK  179  A    between atoms: _452  and  _455
REMARK  180  A    between atoms: _455  and  _456
REMARK  181  A    between atoms: _456  and  _457
REMARK  182  A    between atoms: _457  and  _458
REMARK  183  A    between atoms: _467  and  _469
REMARK  184  A    between atoms: _469  and  _470
REMARK  185  A    between atoms: _469  and  _472
REMARK  186  A    between atoms: _472  and  _473
REMARK  187  A    between atoms: _479  and  _481
REMARK  188  A    between atoms: _481  and  _482
REMARK  189  A    between atoms: _481  and  _484
REMARK  190  A    between atoms: _484  and  _485
REMARK  191  A    between atoms: _487  and  _489
REMARK  192  A    between atoms: _489  and  _490
REMARK  193  A    between atoms: _489  and  _492
REMARK  194  A    between atoms: _492  and  _493
REMARK  195  A    between atoms: _498  and  _500
REMARK  196  A    between atoms: _500  and  _501
REMARK  197  A    between atoms: _500  and  _503
REMARK  198  A    between atoms: _503  and  _504
REMARK  199  A    between atoms: _504  and  _505
REMARK  200  A    between atoms: _508  and  _510
REMARK  201  A    between atoms: _510  and  _511
REMARK  202  A    between atoms: _513  and  _515
REMARK  203  A    between atoms: _515  and  _516
REMARK  204  A    between atoms: _515  and  _518
REMARK  205  A    between atoms: _518  and  _519
REMARK  206  A    between atoms: _521  and  _523
REMARK  207  A    between atoms: _523  and  _524
REMARK  208  A    between atoms: _523  and  _526
REMARK  209  A    between atoms: _526  and  _527
REMARK  210  A    between atoms: _533  and  _535
REMARK  211  A    between atoms: _535  and  _536
REMARK  212  A    between atoms: _535  and  _538
REMARK  213  A    between atoms: _538  and  _539
REMARK  214  A    between atoms: _545  and  _547
REMARK  215  A    between atoms: _547  and  _548
REMARK  216  A    between atoms: _547  and  _550
REMARK  217  A    between atoms: _550  and  _551
REMARK  218  A    between atoms: _554  and  _556
REMARK  219  A    between atoms: _556  and  _557
REMARK  220  A    between atoms: _556  and  _559
REMARK  221  A    between atoms: _559  and  _560
REMARK  222  A    between atoms: _563  and  _565
REMARK  223  A    between atoms: _565  and  _566
REMARK  224  A    between atoms: _565  and  _568
REMARK  225  A    between atoms: _568  and  _569
REMARK  226  A    between atoms: _574  and  _575
REMARK  227  A    between atoms: _577  and  _579
REMARK  228  A    between atoms: _579  and  _580
REMARK  229  A    between atoms: _582  and  _584
REMARK  230  A    between atoms: _584  and  _585
REMARK  231  A    between atoms: _588  and  _590
REMARK  232  A    between atoms: _590  and  _591
REMARK  233  A    between atoms: _590  and  _593
REMARK  234  A    between atoms: _593  and  _594
REMARK  235  A    between atoms: _597  and  _599
REMARK  236  A    between atoms: _599  and  _600
REMARK  237  A    between atoms: _599  and  _602
REMARK  238  A    between atoms: _602  and  _603
REMARK  239  A    between atoms: _605  and  _607
REMARK  240  A    between atoms: _607  and  _608
REMARK  241  A    between atoms: _607  and  _610
REMARK  242  A    between atoms: _613  and  _615
REMARK  243  A    between atoms: _615  and  _616
REMARK  244  A    between atoms: _615  and  _618
REMARK  245  A    between atoms: _618  and  _619
REMARK  246  A    between atoms: _624  and  _626
REMARK  247  A    between atoms: _626  and  _627
REMARK  248  A    between atoms: _626  and  _629
REMARK  249  A    between atoms: _629  and  _630
REMARK  250  A    between atoms: _640  and  _642
REMARK  251  A    between atoms: _642  and  _643
REMARK  252  A    between atoms: _642  and  _645
REMARK  253  A    between atoms: _645  and  _646
REMARK  254  A    between atoms: _646  and  _647
REMARK  255  A    between atoms: _649  and  _651
REMARK  256  A    between atoms: _651  and  _652
REMARK  257  A    between atoms: _651  and  _654
REMARK  258  A    between atoms: _654  and  _655
REMARK  259  A    between atoms: _658  and  _660
REMARK  260  A    between atoms: _660  and  _661
REMARK  261  A    between atoms: _660  and  _663
REMARK  262  A    between atoms: _663  and  _664
REMARK  263  A    between atoms: _669  and  _671
REMARK  264  A    between atoms: _671  and  _672
REMARK  265  A    between atoms: _674  and  _676
REMARK  266  A    between atoms: _676  and  _677
REMARK  267  A    between atoms: _676  and  _679
REMARK  268  A    between atoms: _679  and  _680
REMARK  269  A    between atoms: _685  and  _686
REMARK  270  A    between atoms: _688  and  _690
REMARK  271  A    between atoms: _690  and  _691
REMARK  272  A    between atoms: _690  and  _693
REMARK  273  A    between atoms: _693  and  _694
REMARK  274  A    between atoms: _694  and  _695
REMARK  275  A    between atoms: _698  and  _700
REMARK  276  A    between atoms: _700  and  _701
REMARK  277  A    between atoms: _700  and  _703
REMARK  278  A    between atoms: _703  and  _704
REMARK                            x       y       z     vdW  Elec       q    Type
REMARK                         _______ _______ _______ _____ _____    ______ ____
ROOT
ATOM      1  O   HOH     1       4.590  55.479  78.611  0.00  0.00    +0.000 OA
ENDROOT
TORSDOF 0
REMARK  Name = ../refined-set-2016/1h23/1h23_pocket.pdb
REMARK  278 active torsions:
REMARK  status: ('A' for Active; 'I' for Inactive)
REMARK    1  A    between atoms: _1  and  _3
REMARK    2  A    between atoms: _3  and  _4
REMARK    3  A    between atoms: _3  and  _6
REMARK    4  A    between atoms: _6  and  _7
REMARK    5  A    between atoms: _7  and  _8
REMARK    6  A    between atoms: _13  and  _15
REMARK    7  A    between atoms: _15  and  _16
REMARK    8  A    between atoms: _15  and  _18
REMARK    9  A    between atoms: _18  and  _19
REMARK   10  A    between atoms: _24  and  _25
REMARK   11  A    between atoms: _27  and  _29
REMARK   12  A    between atoms: _29  and  _30
REMARK   13  A    between atoms: _29  and  _32
REMARK   14  A    between atoms: _35  and  _37
REMARK   15  A    between atoms: _37  and  _38
REMARK   16  A    between atoms: _37  and  _40
REMARK   17  A    between atoms: _40  and  _41
REMARK   18  A    between atoms: _44  and  _46
REMARK   19  A    between atoms: _46  and  _47
REMARK   20  A    between atoms: _46  and  _49
REMARK   21  A    between atoms: _49  and  _50
REMARK   22  A    between atoms: _50  and  _51
REMARK   23  A    between atoms: _54  and  _56
REMARK   24  A    between atoms: _56  and  _57
REMARK   25  A    between atoms: _56  and  _59
REMARK   26  A    between atoms: _59  and  _60
REMARK   27  A    between atoms: _60  and  _61
REMARK   28  A    between atoms: _66  and  _68
REMARK   29  A    between atoms: _68  and  _69
REMARK   30  A    between atoms: _68  and  _71
REMARK   31  A    between atoms: _71  and  _72
REMARK   32  A    between atoms: _78  and  _80
REMARK   33  A    between atoms: _80  and  _81
REMARK   34  A    between atoms: _83  and  _85
REMARK   35  A    between atoms: _85  and  _86
REMARK   36  A    between atoms: _85  and  _88
REMARK   37  A    between atoms: _88  and  _89
REMARK   38  A    between atoms: _91  and  _93
REMARK   39  A    between atoms: _93  and  _94
REMARK   40  A    between atoms: _93  and  _96
REMARK   41  A    between atoms: _96  and  _97
REMARK   42  A    between atoms: _97  and  _98
REMARK   43  A    between atoms: _100  and  _102
REMARK   44  A    between atoms: _102  and  _103
REMARK   45  A    between atoms: _102  and  _105
REMARK   46  A    between atoms: _105  and  _106
REMARK   47  A    between atoms: _116  and  _118
REMARK   48  A    between atoms: _118  and  _119
REMARK   49  A    between atoms: _118  and  _121
REMARK   50  A    between atoms: _121  and  _122
REMARK   51  A    between atoms: _128  and  _129
REMARK   52  A    between atoms: _134  and  _136
REMARK   53  A    between atoms: _136  and  _137
REMARK   54  A    between atoms: _136  and  _139
REMARK   55  A    between atoms: _139  and  _140
REMARK   56  A    between atoms: _150  and  _152
REMARK   57  A    between atoms: _152  and  _153
REMARK   58  A    between atoms: _152  and  _155
REMARK   59  A    between atoms: _155  and  _156
REMARK   60  A    between atoms: _159  and  _161
REMARK   61  A    between atoms: _161  and  _162
REMARK   62  A    between atoms: _161  and  _164
REMARK   63  A    between atoms: _164  and  _165
REMARK   64  A    between atoms: _170  and  _171
REMARK   65  A    between atoms: _173  and  _175
REMARK   66  A    between atoms: _175  and  _176
REMARK   67  A    between atoms: _178  and  _180
REMARK   68  A    between atoms: _180  and  _181
REMARK   69  A    between atoms: _183  and  _185
REMARK   70  A    between atoms: _185  and  _186
REMARK   71  A    between atoms: _188  and  _190
REMARK   72  A    between atoms: _190  and  _191
REMARK   73  A    between atoms: _190  and  _193
REMARK   74  A    between atoms: _193  and  _194
REMARK   75  A    between atoms: _200  and  _202
REMARK   76  A    between atoms: _202  and  _203
REMARK   77  A    between atoms: _202  and  _205
REMARK   78  A    between atoms: _205  and  _206
REMARK   79  A    between atoms: _211  and  _212
REMARK   80  A    between atoms: _214  and  _216
REMARK   81  A    between atoms: _216  and  _217
REMARK   82  A    between atoms: _216  and  _219
REMARK   83  A    between atoms: _219  and  _220
REMARK   84  A    between atoms: _222  and  _224
REMARK   85  A    between atoms: _224  and  _225
REMARK   86  A    between atoms: _227  and  _229
REMARK   87  A    between atoms: _229  and  _230
REMARK   88  A    between atoms: _229  and  _232
REMARK   89  A    between atoms: _232  and  _233
REMARK   90  A    between atoms: _235  and  _237
REMARK   91  A    between atoms: _237  and  _238
REMARK   92  A    between atoms: _237  and  _240
REMARK   93  A    between atoms: _240  and  _241
REMARK   94  A    between atoms: _243  and  _245
REMARK   95  A    between atoms: _245  and  _246
REMARK   96  A    between atoms: _245  and  _248
REMARK   97  A    between atoms: _248  and  _249
REMARK   98  A    between atoms: _252  and  _254
REMARK   99  A    between atoms: _254  and  _255
REMARK  100  A    between atoms: _254  and  _257
REMARK  101  A    between atoms: _257  and  _258
REMARK  102  A    between atoms: _261  and  _263
REMARK  103  A    between atoms: _263  and  _264
REMARK  104  A    between atoms: _263  and  _266
REMARK  105  A    between atoms: _269  and  _271
REMARK  106  A    between atoms: _271  and  _272
REMARK  107  A    between atoms: _271  and  _274
REMARK  108  A    between atoms: _274  and  _275
REMARK  109  A    between atoms: _280  and  _281
REMARK  110  A    between atoms: _283  and  _285
REMARK  111  A    between atoms: _285  and  _286
REMARK  112  A    between atoms: _285  and  _288
REMARK  113  A    between atoms: _288  and  _289
REMARK  114  A    between atoms: _294  and  _295
REMARK  115  A    between atoms: _297  and  _299
REMARK  116  A    between atoms: _299  and  _300
REMARK  117  A    between atoms: _299  and  _302
REMARK  118  A    between atoms: _305  and  _307
REMARK  119  A    between atoms: _307  and  _308
REMARK  120  A    between atoms: _307  and  _310
REMARK  121  A    between atoms: _310  and  _311
REMARK  122  A    between atoms: _311  and  _312
REMARK  123  A    between atoms: _315  and  _317
REMARK  124  A    between atoms: _317  and  _318
REMARK  125  A    between atoms: _317  and  _320
REMARK  126  A    between atoms: _320  and  _321
REMARK  127  A    between atoms: _323  and  _325
REMARK  128  A    between atoms: _325  and  _326
REMARK  129  A    between atoms: _329  and  _331
REMARK  130  A    between atoms: _331  and  _332
REMARK  131  A    between atoms: _334  and  _336
REMARK  132  A    between atoms: _336  and  _337
REMARK  133  A    between atoms: _336  and  _339
REMARK  134  A    between atoms: _339  and  _340
REMARK  135  A    between atoms: _340  and  _341
REMARK  136  A    between atoms: _346  and  _348
REMARK  137  A    between atoms: _348  and  _349
REMARK  138  A    between atoms: _348  and  _351
REMARK  139  A    between atoms: _351  and  _352
REMARK  140  A    between atoms: _354  and  _356
REMARK  141  A    between atoms: _356  and  _357
REMARK  142  A    between atoms: _356  and  _359
REMARK  143  A    between atoms: _359  and  _360
REMARK  144  A    between atoms: _360  and  _361
REMARK  145  A    between atoms: _364  and  _366
REMARK  146  A    between atoms: _366  and  _367
REMARK  147  A    between atoms: _366  and  _369
REMARK  148  A    between atoms: _369  and  _370
REMARK  149  A    between atoms: _380  and  _382
REMARK  150  A    between atoms: _382  and  _383
REMARK  151  A    between atoms: _382  and  _385
REMARK  152  A    between atoms: _385  and  _386
REMARK  153  A    between atoms: _391  and  _393
REMARK  154  A    between atoms: _393  and  _394
REMARK  155  A    between atoms: _393  and  _396
REMARK  156  A    between atoms: _396  and  _397
REMARK  157  A    between atoms: _400  and  _402
REMARK  158  A    between atoms: _402  and  _403
REMARK  159  A    between atoms: _402  and  _405
REMARK  160  A    between atoms: _405  and  _406
REMARK  161  A    between atoms: _412  and  _414
REMARK  162  A    between atoms: _414  and  _415
REMARK  163  A    between atoms: _414  and  _417
REMARK  164  A    between atoms: _417  and  _418
REMARK  165  A    between atoms: _421  and  _423
REMARK  166  A    between atoms: _423  and  _424
REMARK  167  A    between atoms: _423  and  _426
REMARK  168  A    between atoms: _426  and  _427
REMARK  169  A    between atoms: _429  and  _431
REMARK  170  A    between atoms: _431  and  _432
REMARK  171  A    between atoms: _431  and  _434
REMARK  172  A    between atoms: _434  and  _435
REMARK  173  A    between atoms: _438  and  _440
REMARK  174  A    between atoms: _440  and  _441
REMARK  175  A    between atoms: _440  and  _443
REMARK  176  A    between atoms: _443  and  _444
REMARK  177  A    between atoms: _450  and  _452
REMARK  178  A    between atoms: _452  and  _453
REMARK  179  A    between atoms: _452  and  _455
REMARK  180  A    between atoms: _455  and  _456
REMARK  181  A    between atoms: _456  and  _457
REMARK  182  A    between atoms: _457  and  _458
REMARK  183  A    between atoms: _467  and  _469
REMARK  184  A    between atoms: _469  and  _470
REMARK  185  A    between atoms: _469  and  _472
REMARK  186  A    between atoms: _472  and  _473
REMARK  187  A    between atoms: _479  and  _481
REMARK  188  A    between atoms: _481  and  _482
REMARK  189  A    between atoms: _481  and  _484
REMARK  190  A    between atoms: _484  and  _485
REMARK  191  A    between atoms: _487  and  _489
REMARK  192  A    between atoms: _489  and  _490
REMARK  193  A    between atoms: _489  and  _492
REMARK  194  A    between atoms: _492  and  _493
REMARK  195  A    between atoms: _498  and  _500
REMARK  196  A    between atoms: _500  and  _501
REMARK  197  A    between atoms: _500  and  _503
REMARK  198  A    between atoms: _503  and  _504
REMARK  199  A    between atoms: _504  and  _505
REMARK  200  A    between atoms: _508  and  _510
REMARK  201  A    between atoms: _510  and  _511
REMARK  202  A    between atoms: _513  and  _515
REMARK  203  A    between atoms: _515  and  _516
REMARK  204  A    between atoms: _515  and  _518
REMARK  205  A    between atoms: _518  and  _519
REMARK  206  A    between atoms: _521  and  _523
REMARK  207  A    between atoms: _523  and  _524
REMARK  208  A    between atoms: _523  and  _526
REMARK  209  A    between atoms: _526  and  _527
REMARK  210  A    between atoms: _533  and  _535
REMARK  211  A    between atoms: _535  and  _536
REMARK  212  A    between atoms: _535  and  _538
REMARK  213  A    between atoms: _538  and  _539
REMARK  214  A    between atoms: _545  and  _547
REMARK  215  A    between atoms: _547  and  _548
REMARK  216  A    between atoms: _547  and  _550
REMARK  217  A    between atoms: _550  and  _551
REMARK  218  A    between atoms: _554  and  _556
REMARK  219  A    between atoms: _556  and  _557
REMARK  220  A    between atoms: _556  and  _559
REMARK  221  A    between atoms: _559  and  _560
REMARK  222  A    between atoms: _563  and  _565
REMARK  223  A    between atoms: _565  and  _566
REMARK  224  A    between atoms: _565  and  _568
REMARK  225  A    between atoms: _568  and  _569
REMARK  226  A    between atoms: _574  and  _575
REMARK  227  A    between atoms: _577  and  _579
REMARK  228  A    between atoms: _579  and  _580
REMARK  229  A    between atoms: _582  and  _584
REMARK  230  A    between atoms: _584  and  _585
REMARK  231  A    between atoms: _588  and  _590
REMARK  232  A    between atoms: _590  and  _591
REMARK  233  A    between atoms: _590  and  _593
REMARK  234  A    between atoms: _593  and  _594
REMARK  235  A    between atoms: _597  and  _599
REMARK  236  A    between atoms: _599  and  _600
REMARK  237  A    between atoms: _599  and  _602
REMARK  238  A    between atoms: _602  and  _603
REMARK  239  A    between atoms: _605  and  _607
REMARK  240  A    between atoms: _607  and  _608
REMARK  241  A    between atoms: _607  and  _610
REMARK  242  A    between atoms: _613  and  _615
REMARK  243  A    between atoms: _615  and  _616
REMARK  244  A    between atoms: _615  and  _618
REMARK  245  A    between atoms: _618  and  _619
REMARK  246  A    between atoms: _624  and  _626
REMARK  247  A    between atoms: _626  and  _627
REMARK  248  A    between atoms: _626  and  _629
REMARK  249  A    between atoms: _629  and  _630
REMARK  250  A    between atoms: _640  and  _642
REMARK  251  A    between atoms: _642  and  _643
REMARK  252  A    between atoms: _642  and  _645
REMARK  253  A    between atoms: _645  and  _646
REMARK  254  A    between atoms: _646  and  _647
REMARK  255  A    between atoms: _649  and  _651
REMARK  256  A    between atoms: _651  and  _652
REMARK  257  A    between atoms: _651  and  _654
REMARK  258  A    between atoms: _654  and  _655
REMARK  259  A    between atoms: _658  and  _660
REMARK  260  A    between atoms: _660  and  _661
REMARK  261  A    between atoms: _660  and  _663
REMARK  262  A    between atoms: _663  and  _664
REMARK  263  A    between atoms: _669  and  _671
REMARK  264  A    between atoms: _671  and  _672
REMARK  265  A    between atoms: _674  and  _676
REMARK  266  A    between atoms: _676  and  _677
REMARK  267  A    between atoms: _676  and  _679
REMARK  268  A    between atoms: _679  and  _680
REMARK  269  A    between atoms: _685  and  _686
REMARK  270  A    between atoms: _688  and  _690
REMARK  271  A    between atoms: _690  and  _691
REMARK  272  A    between atoms: _690  and  _693
REMARK  273  A    between atoms: _693  and  _694
REMARK  274  A    between atoms: _694  and  _695
REMARK  275  A    between atoms: _698  and  _700
REMARK  276  A    between atoms: _700  and  _701
REMARK  277  A    between atoms: _700  and  _703
REMARK  278  A    between atoms: _703  and  _704
REMARK                            x       y       z     vdW  Elec       q    Type
REMARK                         _______ _______ _______ _____ _____    ______ ____
ROOT
ATOM      1  O   HOH     1       3.611  54.781  75.595  0.00  0.00    +0.000 OA
ENDROOT
TORSDOF 0
REMARK  Name = ../refined-set-2016/1h23/1h23_pocket.pdb
REMARK  278 active torsions:
REMARK  status: ('A' for Active; 'I' for Inactive)
REMARK    1  A    between atoms: _1  and  _3
REMARK    2  A    between atoms: _3  and  _4
REMARK    3  A    between atoms: _3  and  _6
REMARK    4  A    between atoms: _6  and  _7
REMARK    5  A    between atoms: _7  and  _8
REMARK    6  A    between atoms: _13  and  _15
REMARK    7  A    between atoms: _15  and  _16
REMARK    8  A    between atoms: _15  and  _18
REMARK    9  A    between atoms: _18  and  _19
REMARK   10  A    between atoms: _24  and  _25
REMARK   11  A    between atoms: _27  and  _29
REMARK   12  A    between atoms: _29  and  _30
REMARK   13  A    between atoms: _29  and  _32
REMARK   14  A    between atoms: _35  and  _37
REMARK   15  A    between atoms: _37  and  _38
REMARK   16  A    between atoms: _37  and  _40
REMARK   17  A    between atoms: _40  and  _41
REMARK   18  A    between atoms: _44  and  _46
REMARK   19  A    between atoms: _46  and  _47
REMARK   20  A    between atoms: _46  and  _49
REMARK   21  A    between atoms: _49  and  _50
REMARK   22  A    between atoms: _50  and  _51
REMARK   23  A    between atoms: _54  and  _56
REMARK   24  A    between atoms: _56  and  _57
REMARK   25  A    between atoms: _56  and  _59
REMARK   26  A    between atoms: _59  and  _60
REMARK   27  A    between atoms: _60  and  _61
REMARK   28  A    between atoms: _66  and  _68
REMARK   29  A    between atoms: _68  and  _69
REMARK   30  A    between atoms: _68  and  _71
REMARK   31  A    between atoms: _71  and  _72
REMARK   32  A    between atoms: _78  and  _80
REMARK   33  A    between atoms: _80  and  _81
REMARK   34  A    between atoms: _83  and  _85
REMARK   35  A    between atoms: _85  and  _86
REMARK   36  A    between atoms: _85  and  _88
REMARK   37  A    between atoms: _88  and  _89
REMARK   38  A    between atoms: _91  and  _93
REMARK   39  A    between atoms: _93  and  _94
REMARK   40  A    between atoms: _93  and  _96
REMARK   41  A    between atoms: _96  and  _97
REMARK   42  A    between atoms: _97  and  _98
REMARK   43  A    between atoms: _100  and  _102
REMARK   44  A    between atoms: _102  and  _103
REMARK   45  A    between atoms: _102  and  _105
REMARK   46  A    between atoms: _105  and  _106
REMARK   47  A    between atoms: _116  and  _118
REMARK   48  A    between atoms: _118  and  _119
REMARK   49  A    between atoms: _118  and  _121
REMARK   50  A    between atoms: _121  and  _122
REMARK   51  A    between atoms: _128  and  _129
REMARK   52  A    between atoms: _134  and  _136
REMARK   53  A    between atoms: _136  and  _137
REMARK   54  A    between atoms: _136  and  _139
REMARK   55  A    between atoms: _139  and  _140
REMARK   56  A    between atoms: _150  and  _152
REMARK   57  A    between atoms: _152  and  _153
REMARK   58  A    between atoms: _152  and  _155
REMARK   59  A    between atoms: _155  and  _156
REMARK   60  A    between atoms: _159  and  _161
REMARK   61  A    between atoms: _161  and  _162
REMARK   62  A    between atoms: _161  and  _164
REMARK   63  A    between atoms: _164  and  _165
REMARK   64  A    between atoms: _170  and  _171
REMARK   65  A    between atoms: _173  and  _175
REMARK   66  A    between atoms: _175  and  _176
REMARK   67  A    between atoms: _178  and  _180
REMARK   68  A    between atoms: _180  and  _181
REMARK   69  A    between atoms: _183  and  _185
REMARK   70  A    between atoms: _185  and  _186
REMARK   71  A    between atoms: _188  and  _190
REMARK   72  A    between atoms: _190  and  _191
REMARK   73  A    between atoms: _190  and  _193
REMARK   74  A    between atoms: _193  and  _194
REMARK   75  A    between atoms: _200  and  _202
REMARK   76  A    between atoms: _202  and  _203
REMARK   77  A    between atoms: _202  and  _205
REMARK   78  A    between atoms: _205  and  _206
REMARK   79  A    between atoms: _211  and  _212
REMARK   80  A    between atoms: _214  and  _216
REMARK   81  A    between atoms: _216  and  _217
REMARK   82  A    between atoms: _216  and  _219
REMARK   83  A    between atoms: _219  and  _220
REMARK   84  A    between atoms: _222  and  _224
REMARK   85  A    between atoms: _224  and  _225
REMARK   86  A    between atoms: _227  and  _229
REMARK   87  A    between atoms: _229  and  _230
REMARK   88  A    between atoms: _229  and  _232
REMARK   89  A    between atoms: _232  and  _233
REMARK   90  A    between atoms: _235  and  _237
REMARK   91  A    between atoms: _237  and  _238
REMARK   92  A    between atoms: _237  and  _240
REMARK   93  A    between atoms: _240  and  _241
REMARK   94  A    between atoms: _243  and  _245
REMARK   95  A    between atoms: _245  and  _246
REMARK   96  A    between atoms: _245  and  _248
REMARK   97  A    between atoms: _248  and  _249
REMARK   98  A    between atoms: _252  and  _254
REMARK   99  A    between atoms: _254  and  _255
REMARK  100  A    between atoms: _254  and  _257
REMARK  101  A    between atoms: _257  and  _258
REMARK  102  A    between atoms: _261  and  _263
REMARK  103  A    between atoms: _263  and  _264
REMARK  104  A    between atoms: _263  and  _266
REMARK  105  A    between atoms: _269  and  _271
REMARK  106  A    between atoms: _271  and  _272
REMARK  107  A    between atoms: _271  and  _274
REMARK  108  A    between atoms: _274  and  _275
REMARK  109  A    between atoms: _280  and  _281
REMARK  110  A    between atoms: _283  and  _285
REMARK  111  A    between atoms: _285  and  _286
REMARK  112  A    between atoms: _285  and  _288
REMARK  113  A    between atoms: _288  and  _289
REMARK  114  A    between atoms: _294  and  _295
REMARK  115  A    between atoms: _297  and  _299
REMARK  116  A    between atoms: _299  and  _300
REMARK  117  A    between atoms: _299  and  _302
REMARK  118  A    between atoms: _305  and  _307
REMARK  119  A    between atoms: _307  and  _308
REMARK  120  A    between atoms: _307  and  _310
REMARK  121  A    between atoms: _310  and  _311
REMARK  122  A    between atoms: _311  and  _312
REMARK  123  A    between atoms: _315  and  _317
REMARK  124  A    between atoms: _317  and  _318
REMARK  125  A    between atoms: _317  and  _320
REMARK  126  A    between atoms: _320  and  _321
REMARK  127  A    between atoms: _323  and  _325
REMARK  128  A    between atoms: _325  and  _326
REMARK  129  A    between atoms: _329  and  _331
REMARK  130  A    between atoms: _331  and  _332
REMARK  131  A    between atoms: _334  and  _336
REMARK  132  A    between atoms: _336  and  _337
REMARK  133  A    between atoms: _336  and  _339
REMARK  134  A    between atoms: _339  and  _340
REMARK  135  A    between atoms: _340  and  _341
REMARK  136  A    between atoms: _346  and  _348
REMARK  137  A    between atoms: _348  and  _349
REMARK  138  A    between atoms: _348  and  _351
REMARK  139  A    between atoms: _351  and  _352
REMARK  140  A    between atoms: _354  and  _356
REMARK  141  A    between atoms: _356  and  _357
REMARK  142  A    between atoms: _356  and  _359
REMARK  143  A    between atoms: _359  and  _360
REMARK  144  A    between atoms: _360  and  _361
REMARK  145  A    between atoms: _364  and  _366
REMARK  146  A    between atoms: _366  and  _367
REMARK  147  A    between atoms: _366  and  _369
REMARK  148  A    between atoms: _369  and  _370
REMARK  149  A    between atoms: _380  and  _382
REMARK  150  A    between atoms: _382  and  _383
REMARK  151  A    between atoms: _382  and  _385
REMARK  152  A    between atoms: _385  and  _386
REMARK  153  A    between atoms: _391  and  _393
REMARK  154  A    between atoms: _393  and  _394
REMARK  155  A    between atoms: _393  and  _396
REMARK  156  A    between atoms: _396  and  _397
REMARK  157  A    between atoms: _400  and  _402
REMARK  158  A    between atoms: _402  and  _403
REMARK  159  A    between atoms: _402  and  _405
REMARK  160  A    between atoms: _405  and  _406
REMARK  161  A    between atoms: _412  and  _414
REMARK  162  A    between atoms: _414  and  _415
REMARK  163  A    between atoms: _414  and  _417
REMARK  164  A    between atoms: _417  and  _418
REMARK  165  A    between atoms: _421  and  _423
REMARK  166  A    between atoms: _423  and  _424
REMARK  167  A    between atoms: _423  and  _426
REMARK  168  A    between atoms: _426  and  _427
REMARK  169  A    between atoms: _429  and  _431
REMARK  170  A    between atoms: _431  and  _432
REMARK  171  A    between atoms: _431  and  _434
REMARK  172  A    between atoms: _434  and  _435
REMARK  173  A    between atoms: _438  and  _440
REMARK  174  A    between atoms: _440  and  _441
REMARK  175  A    between atoms: _440  and  _443
REMARK  176  A    between atoms: _443  and  _444
REMARK  177  A    between atoms: _450  and  _452
REMARK  178  A    between atoms: _452  and  _453
REMARK  179  A    between atoms: _452  and  _455
REMARK  180  A    between atoms: _455  and  _456
REMARK  181  A    between atoms: _456  and  _457
REMARK  182  A    between atoms: _457  and  _458
REMARK  183  A    between atoms: _467  and  _469
REMARK  184  A    between atoms: _469  and  _470
REMARK  185  A    between atoms: _469  and  _472
REMARK  186  A    between atoms: _472  and  _473
REMARK  187  A    between atoms: _479  and  _481
REMARK  188  A    between atoms: _481  and  _482
REMARK  189  A    between atoms: _481  and  _484
REMARK  190  A    between atoms: _484  and  _485
REMARK  191  A    between atoms: _487  and  _489
REMARK  192  A    between atoms: _489  and  _490
REMARK  193  A    between atoms: _489  and  _492
REMARK  194  A    between atoms: _492  and  _493
REMARK  195  A    between atoms: _498  and  _500
REMARK  196  A    between atoms: _500  and  _501
REMARK  197  A    between atoms: _500  and  _503
REMARK  198  A    between atoms: _503  and  _504
REMARK  199  A    between atoms: _504  and  _505
REMARK  200  A    between atoms: _508  and  _510
REMARK  201  A    between atoms: _510  and  _511
REMARK  202  A    between atoms: _513  and  _515
REMARK  203  A    between atoms: _515  and  _516
REMARK  204  A    between atoms: _515  and  _518
REMARK  205  A    between atoms: _518  and  _519
REMARK  206  A    between atoms: _521  and  _523
REMARK  207  A    between atoms: _523  and  _524
REMARK  208  A    between atoms: _523  and  _526
REMARK  209  A    between atoms: _526  and  _527
REMARK  210  A    between atoms: _533  and  _535
REMARK  211  A    between atoms: _535  and  _536
REMARK  212  A    between atoms: _535  and  _538
REMARK  213  A    between atoms: _538  and  _539
REMARK  214  A    between atoms: _545  and  _547
REMARK  215  A    between atoms: _547  and  _548
REMARK  216  A    between atoms: _547  and  _550
REMARK  217  A    between atoms: _550  and  _551
REMARK  218  A    between atoms: _554  and  _556
REMARK  219  A    between atoms: _556  and  _557
REMARK  220  A    between atoms: _556  and  _559
REMARK  221  A    between atoms: _559  and  _560
REMARK  222  A    between atoms: _563  and  _565
REMARK  223  A    between atoms: _565  and  _566
REMARK  224  A    between atoms: _565  and  _568
REMARK  225  A    between atoms: _568  and  _569
REMARK  226  A    between atoms: _574  and  _575
REMARK  227  A    between atoms: _577  and  _579
REMARK  228  A    between atoms: _579  and  _580
REMARK  229  A    between atoms: _582  and  _584
REMARK  230  A    between atoms: _584  and  _585
REMARK  231  A    between atoms: _588  and  _590
REMARK  232  A    between atoms: _590  and  _591
REMARK  233  A    between atoms: _590  and  _593
REMARK  234  A    between atoms: _593  and  _594
REMARK  235  A    between atoms: _597  and  _599
REMARK  236  A    between atoms: _599  and  _600
REMARK  237  A    between atoms: _599  and  _602
REMARK  238  A    between atoms: _602  and  _603
REMARK  239  A    between atoms: _605  and  _607
REMARK  240  A    between atoms: _607  and  _608
REMARK  241  A    between atoms: _607  and  _610
REMARK  242  A    between atoms: _613  and  _615
REMARK  243  A    between atoms: _615  and  _616
REMARK  244  A    between atoms: _615  and  _618
REMARK  245  A    between atoms: _618  and  _619
REMARK  246  A    between atoms: _624  and  _626
REMARK  247  A    between atoms: _626  and  _627
REMARK  248  A    between atoms: _626  and  _629
REMARK  249  A    between atoms: _629  and  _630
REMARK  250  A    between atoms: _640  and  _642
REMARK  251  A    between atoms: _642  and  _643
REMARK  252  A    between atoms: _642  and  _645
REMARK  253  A    between atoms: _645  and  _646
REMARK  254  A    between atoms: _646  and  _647
REMARK  255  A    between atoms: _649  and  _651
REMARK  256  A    between atoms: _651  and  _652
REMARK  257  A    between atoms: _651  and  _654
REMARK  258  A    between atoms: _654  and  _655
REMARK  259  A    between atoms: _658  and  _660
REMARK  260  A    between atoms: _660  and  _661
REMARK  261  A    between atoms: _660  and  _663
REMARK  262  A    between atoms: _663  and  _664
REMARK  263  A    between atoms: _669  and  _671
REMARK  264  A    between atoms: _671  and  _672
REMARK  265  A    between atoms: _674  and  _676
REMARK  266  A    between atoms: _676  and  _677
REMARK  267  A    between atoms: _676  and  _679
REMARK  268  A    between atoms: _679  and  _680
REMARK  269  A    between atoms: _685  and  _686
REMARK  270  A    between atoms: _688  and  _690
REMARK  271  A    between atoms: _690  and  _691
REMARK  272  A    between atoms: _690  and  _693
REMARK  273  A    between atoms: _693  and  _694
REMARK  274  A    between atoms: _694  and  _695
REMARK  275  A    between atoms: _698  and  _700
REMARK  276  A    between atoms: _700  and  _701
REMARK  277  A    between atoms: _700  and  _703
REMARK  278  A    between atoms: _703  and  _704
REMARK                            x       y       z     vdW  Elec       q    Type
REMARK                         _______ _______ _______ _____ _____    ______ ____
ROOT
ATOM      1  O   HOH     1       3.392  50.642  69.588  0.00  0.00    +0.000 OA
ENDROOT
TORSDOF 0
REMARK  Name = ../refined-set-2016/1h23/1h23_pocket.pdb
REMARK  278 active torsions:
REMARK  status: ('A' for Active; 'I' for Inactive)
REMARK    1  A    between atoms: _1  and  _3
REMARK    2  A    between atoms: _3  and  _4
REMARK    3  A    between atoms: _3  and  _6
REMARK    4  A    between atoms: _6  and  _7
REMARK    5  A    between atoms: _7  and  _8
REMARK    6  A    between atoms: _13  and  _15
REMARK    7  A    between atoms: _15  and  _16
REMARK    8  A    between atoms: _15  and  _18
REMARK    9  A    between atoms: _18  and  _19
REMARK   10  A    between atoms: _24  and  _25
REMARK   11  A    between atoms: _27  and  _29
REMARK   12  A    between atoms: _29  and  _30
REMARK   13  A    between atoms: _29  and  _32
REMARK   14  A    between atoms: _35  and  _37
REMARK   15  A    between atoms: _37  and  _38
REMARK   16  A    between atoms: _37  and  _40
REMARK   17  A    between atoms: _40  and  _41
REMARK   18  A    between atoms: _44  and  _46
REMARK   19  A    between atoms: _46  and  _47
REMARK   20  A    between atoms: _46  and  _49
REMARK   21  A    between atoms: _49  and  _50
REMARK   22  A    between atoms: _50  and  _51
REMARK   23  A    between atoms: _54  and  _56
REMARK   24  A    between atoms: _56  and  _57
REMARK   25  A    between atoms: _56  and  _59
REMARK   26  A    between atoms: _59  and  _60
REMARK   27  A    between atoms: _60  and  _61
REMARK   28  A    between atoms: _66  and  _68
REMARK   29  A    between atoms: _68  and  _69
REMARK   30  A    between atoms: _68  and  _71
REMARK   31  A    between atoms: _71  and  _72
REMARK   32  A    between atoms: _78  and  _80
REMARK   33  A    between atoms: _80  and  _81
REMARK   34  A    between atoms: _83  and  _85
REMARK   35  A    between atoms: _85  and  _86
REMARK   36  A    between atoms: _85  and  _88
REMARK   37  A    between atoms: _88  and  _89
REMARK   38  A    between atoms: _91  and  _93
REMARK   39  A    between atoms: _93  and  _94
REMARK   40  A    between atoms: _93  and  _96
REMARK   41  A    between atoms: _96  and  _97
REMARK   42  A    between atoms: _97  and  _98
REMARK   43  A    between atoms: _100  and  _102
REMARK   44  A    between atoms: _102  and  _103
REMARK   45  A    between atoms: _102  and  _105
REMARK   46  A    between atoms: _105  and  _106
REMARK   47  A    between atoms: _116  and  _118
REMARK   48  A    between atoms: _118  and  _119
REMARK   49  A    between atoms: _118  and  _121
REMARK   50  A    between atoms: _121  and  _122
REMARK   51  A    between atoms: _128  and  _129
REMARK   52  A    between atoms: _134  and  _136
REMARK   53  A    between atoms: _136  and  _137
REMARK   54  A    between atoms: _136  and  _139
REMARK   55  A    between atoms: _139  and  _140
REMARK   56  A    between atoms: _150  and  _152
REMARK   57  A    between atoms: _152  and  _153
REMARK   58  A    between atoms: _152  and  _155
REMARK   59  A    between atoms: _155  and  _156
REMARK   60  A    between atoms: _159  and  _161
REMARK   61  A    between atoms: _161  and  _162
REMARK   62  A    between atoms: _161  and  _164
REMARK   63  A    between atoms: _164  and  _165
REMARK   64  A    between atoms: _170  and  _171
REMARK   65  A    between atoms: _173  and  _175
REMARK   66  A    between atoms: _175  and  _176
REMARK   67  A    between atoms: _178  and  _180
REMARK   68  A    between atoms: _180  and  _181
REMARK   69  A    between atoms: _183  and  _185
REMARK   70  A    between atoms: _185  and  _186
REMARK   71  A    between atoms: _188  and  _190
REMARK   72  A    between atoms: _190  and  _191
REMARK   73  A    between atoms: _190  and  _193
REMARK   74  A    between atoms: _193  and  _194
REMARK   75  A    between atoms: _200  and  _202
REMARK   76  A    between atoms: _202  and  _203
REMARK   77  A    between atoms: _202  and  _205
REMARK   78  A    between atoms: _205  and  _206
REMARK   79  A    between atoms: _211  and  _212
REMARK   80  A    between atoms: _214  and  _216
REMARK   81  A    between atoms: _216  and  _217
REMARK   82  A    between atoms: _216  and  _219
REMARK   83  A    between atoms: _219  and  _220
REMARK   84  A    between atoms: _222  and  _224
REMARK   85  A    between atoms: _224  and  _225
REMARK   86  A    between atoms: _227  and  _229
REMARK   87  A    between atoms: _229  and  _230
REMARK   88  A    between atoms: _229  and  _232
REMARK   89  A    between atoms: _232  and  _233
REMARK   90  A    between atoms: _235  and  _237
REMARK   91  A    between atoms: _237  and  _238
REMARK   92  A    between atoms: _237  and  _240
REMARK   93  A    between atoms: _240  and  _241
REMARK   94  A    between atoms: _243  and  _245
REMARK   95  A    between atoms: _245  and  _246
REMARK   96  A    between atoms: _245  and  _248
REMARK   97  A    between atoms: _248  and  _249
REMARK   98  A    between atoms: _252  and  _254
REMARK   99  A    between atoms: _254  and  _255
REMARK  100  A    between atoms: _254  and  _257
REMARK  101  A    between atoms: _257  and  _258
REMARK  102  A    between atoms: _261  and  _263
REMARK  103  A    between atoms: _263  and  _264
REMARK  104  A    between atoms: _263  and  _266
REMARK  105  A    between atoms: _269  and  _271
REMARK  106  A    between atoms: _271  and  _272
REMARK  107  A    between atoms: _271  and  _274
REMARK  108  A    between atoms: _274  and  _275
REMARK  109  A    between atoms: _280  and  _281
REMARK  110  A    between atoms: _283  and  _285
REMARK  111  A    between atoms: _285  and  _286
REMARK  112  A    between atoms: _285  and  _288
REMARK  113  A    between atoms: _288  and  _289
REMARK  114  A    between atoms: _294  and  _295
REMARK  115  A    between atoms: _297  and  _299
REMARK  116  A    between atoms: _299  and  _300
REMARK  117  A    between atoms: _299  and  _302
REMARK  118  A    between atoms: _305  and  _307
REMARK  119  A    between atoms: _307  and  _308
REMARK  120  A    between atoms: _307  and  _310
REMARK  121  A    between atoms: _310  and  _311
REMARK  122  A    between atoms: _311  and  _312
REMARK  123  A    between atoms: _315  and  _317
REMARK  124  A    between atoms: _317  and  _318
REMARK  125  A    between atoms: _317  and  _320
REMARK  126  A    between atoms: _320  and  _321
REMARK  127  A    between atoms: _323  and  _325
REMARK  128  A    between atoms: _325  and  _326
REMARK  129  A    between atoms: _329  and  _331
REMARK  130  A    between atoms: _331  and  _332
REMARK  131  A    between atoms: _334  and  _336
REMARK  132  A    between atoms: _336  and  _337
REMARK  133  A    between atoms: _336  and  _339
REMARK  134  A    between atoms: _339  and  _340
REMARK  135  A    between atoms: _340  and  _341
REMARK  136  A    between atoms: _346  and  _348
REMARK  137  A    between atoms: _348  and  _349
REMARK  138  A    between atoms: _348  and  _351
REMARK  139  A    between atoms: _351  and  _352
REMARK  140  A    between atoms: _354  and  _356
REMARK  141  A    between atoms: _356  and  _357
REMARK  142  A    between atoms: _356  and  _359
REMARK  143  A    between atoms: _359  and  _360
REMARK  144  A    between atoms: _360  and  _361
REMARK  145  A    between atoms: _364  and  _366
REMARK  146  A    between atoms: _366  and  _367
REMARK  147  A    between atoms: _366  and  _369
REMARK  148  A    between atoms: _369  and  _370
REMARK  149  A    between atoms: _380  and  _382
REMARK  150  A    between atoms: _382  and  _383
REMARK  151  A    between atoms: _382  and  _385
REMARK  152  A    between atoms: _385  and  _386
REMARK  153  A    between atoms: _391  and  _393
REMARK  154  A    between atoms: _393  and  _394
REMARK  155  A    between atoms: _393  and  _396
REMARK  156  A    between atoms: _396  and  _397
REMARK  157  A    between atoms: _400  and  _402
REMARK  158  A    between atoms: _402  and  _403
REMARK  159  A    between atoms: _402  and  _405
REMARK  160  A    between atoms: _405  and  _406
REMARK  161  A    between atoms: _412  and  _414
REMARK  162  A    between atoms: _414  and  _415
REMARK  163  A    between atoms: _414  and  _417
REMARK  164  A    between atoms: _417  and  _418
REMARK  165  A    between atoms: _421  and  _423
REMARK  166  A    between atoms: _423  and  _424
REMARK  167  A    between atoms: _423  and  _426
REMARK  168  A    between atoms: _426  and  _427
REMARK  169  A    between atoms: _429  and  _431
REMARK  170  A    between atoms: _431  and  _432
REMARK  171  A    between atoms: _431  and  _434
REMARK  172  A    between atoms: _434  and  _435
REMARK  173  A    between atoms: _438  and  _440
REMARK  174  A    between atoms: _440  and  _441
REMARK  175  A    between atoms: _440  and  _443
REMARK  176  A    between atoms: _443  and  _444
REMARK  177  A    between atoms: _450  and  _452
REMARK  178  A    between atoms: _452  and  _453
REMARK  179  A    between atoms: _452  and  _455
REMARK  180  A    between atoms: _455  and  _456
REMARK  181  A    between atoms: _456  and  _457
REMARK  182  A    between atoms: _457  and  _458
REMARK  183  A    between atoms: _467  and  _469
REMARK  184  A    between atoms: _469  and  _470
REMARK  185  A    between atoms: _469  and  _472
REMARK  186  A    between atoms: _472  and  _473
REMARK  187  A    between atoms: _479  and  _481
REMARK  188  A    between atoms: _481  and  _482
REMARK  189  A    between atoms: _481  and  _484
REMARK  190  A    between atoms: _484  and  _485
REMARK  191  A    between atoms: _487  and  _489
REMARK  192  A    between atoms: _489  and  _490
REMARK  193  A    between atoms: _489  and  _492
REMARK  194  A    between atoms: _492  and  _493
REMARK  195  A    between atoms: _498  and  _500
REMARK  196  A    between atoms: _500  and  _501
REMARK  197  A    between atoms: _500  and  _503
REMARK  198  A    between atoms: _503  and  _504
REMARK  199  A    between atoms: _504  and  _505
REMARK  200  A    between atoms: _508  and  _510
REMARK  201  A    between atoms: _510  and  _511
REMARK  202  A    between atoms: _513  and  _515
REMARK  203  A    between atoms: _515  and  _516
REMARK  204  A    between atoms: _515  and  _518
REMARK  205  A    between atoms: _518  and  _519
REMARK  206  A    between atoms: _521  and  _523
REMARK  207  A    between atoms: _523  and  _524
REMARK  208  A    between atoms: _523  and  _526
REMARK  209  A    between atoms: _526  and  _527
REMARK  210  A    between atoms: _533  and  _535
REMARK  211  A    between atoms: _535  and  _536
REMARK  212  A    between atoms: _535  and  _538
REMARK  213  A    between atoms: _538  and  _539
REMARK  214  A    between atoms: _545  and  _547
REMARK  215  A    between atoms: _547  and  _548
REMARK  216  A    between atoms: _547  and  _550
REMARK  217  A    between atoms: _550  and  _551
REMARK  218  A    between atoms: _554  and  _556
REMARK  219  A    between atoms: _556  and  _557
REMARK  220  A    between atoms: _556  and  _559
REMARK  221  A    between atoms: _559  and  _560
REMARK  222  A    between atoms: _563  and  _565
REMARK  223  A    between atoms: _565  and  _566
REMARK  224  A    between atoms: _565  and  _568
REMARK  225  A    between atoms: _568  and  _569
REMARK  226  A    between atoms: _574  and  _575
REMARK  227  A    between atoms: _577  and  _579
REMARK  228  A    between atoms: _579  and  _580
REMARK  229  A    between atoms: _582  and  _584
REMARK  230  A    between atoms: _584  and  _585
REMARK  231  A    between atoms: _588  and  _590
REMARK  232  A    between atoms: _590  and  _591
REMARK  233  A    between atoms: _590  and  _593
REMARK  234  A    between atoms: _593  and  _594
REMARK  235  A    between atoms: _597  and  _599
REMARK  236  A    between atoms: _599  and  _600
REMARK  237  A    between atoms: _599  and  _602
REMARK  238  A    between atoms: _602  and  _603
REMARK  239  A    between atoms: _605  and  _607
REMARK  240  A    between atoms: _607  and  _608
REMARK  241  A    between atoms: _607  and  _610
REMARK  242  A    between atoms: _613  and  _615
REMARK  243  A    between atoms: _615  and  _616
REMARK  244  A    between atoms: _615  and  _618
REMARK  245  A    between atoms: _618  and  _619
REMARK  246  A    between atoms: _624  and  _626
REMARK  247  A    between atoms: _626  and  _627
REMARK  248  A    between atoms: _626  and  _629
REMARK  249  A    between atoms: _629  and  _630
REMARK  250  A    between atoms: _640  and  _642
REMARK  251  A    between atoms: _642  and  _643
REMARK  252  A    between atoms: _642  and  _645
REMARK  253  A    between atoms: _645  and  _646
REMARK  254  A    between atoms: _646  and  _647
REMARK  255  A    between atoms: _649  and  _651
REMARK  256  A    between atoms: _651  and  _652
REMARK  257  A    between atoms: _651  and  _654
REMARK  258  A    between atoms: _654  and  _655
REMARK  259  A    between atoms: _658  and  _660
REMARK  260  A    between atoms: _660  and  _661
REMARK  261  A    between atoms: _660  and  _663
REMARK  262  A    between atoms: _663  and  _664
REMARK  263  A    between atoms: _669  and  _671
REMARK  264  A    between atoms: _671  and  _672
REMARK  265  A    between atoms: _674  and  _676
REMARK  266  A    between atoms: _676  and  _677
REMARK  267  A    between atoms: _676  and  _679
REMARK  268  A    between atoms: _679  and  _680
REMARK  269  A    between atoms: _685  and  _686
REMARK  270  A    between atoms: _688  and  _690
REMARK  271  A    between atoms: _690  and  _691
REMARK  272  A    between atoms: _690  and  _693
REMARK  273  A    between atoms: _693  and  _694
REMARK  274  A    between atoms: _694  and  _695
REMARK  275  A    between atoms: _698  and  _700
REMARK  276  A    between atoms: _700  and  _701
REMARK  277  A    between atoms: _700  and  _703
REMARK  278  A    between atoms: _703  and  _704
REMARK                            x       y       z     vdW  Elec       q    Type
REMARK                         _______ _______ _______ _____ _____    ______ ____
ROOT
ATOM      1  O   HOH     1      10.478  55.367  68.776  0.00  0.00    +0.000 OA
ENDROOT
TORSDOF 0
REMARK  Name = ../refined-set-2016/1h23/1h23_pocket.pdb
REMARK  278 active torsions:
REMARK  status: ('A' for Active; 'I' for Inactive)
REMARK    1  A    between atoms: _1  and  _3
REMARK    2  A    between atoms: _3  and  _4
REMARK    3  A    between atoms: _3  and  _6
REMARK    4  A    between atoms: _6  and  _7
REMARK    5  A    between atoms: _7  and  _8
REMARK    6  A    between atoms: _13  and  _15
REMARK    7  A    between atoms: _15  and  _16
REMARK    8  A    between atoms: _15  and  _18
REMARK    9  A    between atoms: _18  and  _19
REMARK   10  A    between atoms: _24  and  _25
REMARK   11  A    between atoms: _27  and  _29
REMARK   12  A    between atoms: _29  and  _30
REMARK   13  A    between atoms: _29  and  _32
REMARK   14  A    between atoms: _35  and  _37
REMARK   15  A    between atoms: _37  and  _38
REMARK   16  A    between atoms: _37  and  _40
REMARK   17  A    between atoms: _40  and  _41
REMARK   18  A    between atoms: _44  and  _46
REMARK   19  A    between atoms: _46  and  _47
REMARK   20  A    between atoms: _46  and  _49
REMARK   21  A    between atoms: _49  and  _50
REMARK   22  A    between atoms: _50  and  _51
REMARK   23  A    between atoms: _54  and  _56
REMARK   24  A    between atoms: _56  and  _57
REMARK   25  A    between atoms: _56  and  _59
REMARK   26  A    between atoms: _59  and  _60
REMARK   27  A    between atoms: _60  and  _61
REMARK   28  A    between atoms: _66  and  _68
REMARK   29  A    between atoms: _68  and  _69
REMARK   30  A    between atoms: _68  and  _71
REMARK   31  A    between atoms: _71  and  _72
REMARK   32  A    between atoms: _78  and  _80
REMARK   33  A    between atoms: _80  and  _81
REMARK   34  A    between atoms: _83  and  _85
REMARK   35  A    between atoms: _85  and  _86
REMARK   36  A    between atoms: _85  and  _88
REMARK   37  A    between atoms: _88  and  _89
REMARK   38  A    between atoms: _91  and  _93
REMARK   39  A    between atoms: _93  and  _94
REMARK   40  A    between atoms: _93  and  _96
REMARK   41  A    between atoms: _96  and  _97
REMARK   42  A    between atoms: _97  and  _98
REMARK   43  A    between atoms: _100  and  _102
REMARK   44  A    between atoms: _102  and  _103
REMARK   45  A    between atoms: _102  and  _105
REMARK   46  A    between atoms: _105  and  _106
REMARK   47  A    between atoms: _116  and  _118
REMARK   48  A    between atoms: _118  and  _119
REMARK   49  A    between atoms: _118  and  _121
REMARK   50  A    between atoms: _121  and  _122
REMARK   51  A    between atoms: _128  and  _129
REMARK   52  A    between atoms: _134  and  _136
REMARK   53  A    between atoms: _136  and  _137
REMARK   54  A    between atoms: _136  and  _139
REMARK   55  A    between atoms: _139  and  _140
REMARK   56  A    between atoms: _150  and  _152
REMARK   57  A    between atoms: _152  and  _153
REMARK   58  A    between atoms: _152  and  _155
REMARK   59  A    between atoms: _155  and  _156
REMARK   60  A    between atoms: _159  and  _161
REMARK   61  A    between atoms: _161  and  _162
REMARK   62  A    between atoms: _161  and  _164
REMARK   63  A    between atoms: _164  and  _165
REMARK   64  A    between atoms: _170  and  _171
REMARK   65  A    between atoms: _173  and  _175
REMARK   66  A    between atoms: _175  and  _176
REMARK   67  A    between atoms: _178  and  _180
REMARK   68  A    between atoms: _180  and  _181
REMARK   69  A    between atoms: _183  and  _185
REMARK   70  A    between atoms: _185  and  _186
REMARK   71  A    between atoms: _188  and  _190
REMARK   72  A    between atoms: _190  and  _191
REMARK   73  A    between atoms: _190  and  _193
REMARK   74  A    between atoms: _193  and  _194
REMARK   75  A    between atoms: _200  and  _202
REMARK   76  A    between atoms: _202  and  _203
REMARK   77  A    between atoms: _202  and  _205
REMARK   78  A    between atoms: _205  and  _206
REMARK   79  A    between atoms: _211  and  _212
REMARK   80  A    between atoms: _214  and  _216
REMARK   81  A    between atoms: _216  and  _217
REMARK   82  A    between atoms: _216  and  _219
REMARK   83  A    between atoms: _219  and  _220
REMARK   84  A    between atoms: _222  and  _224
REMARK   85  A    between atoms: _224  and  _225
REMARK   86  A    between atoms: _227  and  _229
REMARK   87  A    between atoms: _229  and  _230
REMARK   88  A    between atoms: _229  and  _232
REMARK   89  A    between atoms: _232  and  _233
REMARK   90  A    between atoms: _235  and  _237
REMARK   91  A    between atoms: _237  and  _238
REMARK   92  A    between atoms: _237  and  _240
REMARK   93  A    between atoms: _240  and  _241
REMARK   94  A    between atoms: _243  and  _245
REMARK   95  A    between atoms: _245  and  _246
REMARK   96  A    between atoms: _245  and  _248
REMARK   97  A    between atoms: _248  and  _249
REMARK   98  A    between atoms: _252  and  _254
REMARK   99  A    between atoms: _254  and  _255
REMARK  100  A    between atoms: _254  and  _257
REMARK  101  A    between atoms: _257  and  _258
REMARK  102  A    between atoms: _261  and  _263
REMARK  103  A    between atoms: _263  and  _264
REMARK  104  A    between atoms: _263  and  _266
REMARK  105  A    between atoms: _269  and  _271
REMARK  106  A    between atoms: _271  and  _272
REMARK  107  A    between atoms: _271  and  _274
REMARK  108  A    between atoms: _274  and  _275
REMARK  109  A    between atoms: _280  and  _281
REMARK  110  A    between atoms: _283  and  _285
REMARK  111  A    between atoms: _285  and  _286
REMARK  112  A    between atoms: _285  and  _288
REMARK  113  A    between atoms: _288  and  _289
REMARK  114  A    between atoms: _294  and  _295
REMARK  115  A    between atoms: _297  and  _299
REMARK  116  A    between atoms: _299  and  _300
REMARK  117  A    between atoms: _299  and  _302
REMARK  118  A    between atoms: _305  and  _307
REMARK  119  A    between atoms: _307  and  _308
REMARK  120  A    between atoms: _307  and  _310
REMARK  121  A    between atoms: _310  and  _311
REMARK  122  A    between atoms: _311  and  _312
REMARK  123  A    between atoms: _315  and  _317
REMARK  124  A    between atoms: _317  and  _318
REMARK  125  A    between atoms: _317  and  _320
REMARK  126  A    between atoms: _320  and  _321
REMARK  127  A    between atoms: _323  and  _325
REMARK  128  A    between atoms: _325  and  _326
REMARK  129  A    between atoms: _329  and  _331
REMARK  130  A    between atoms: _331  and  _332
REMARK  131  A    between atoms: _334  and  _336
REMARK  132  A    between atoms: _336  and  _337
REMARK  133  A    between atoms: _336  and  _339
REMARK  134  A    between atoms: _339  and  _340
REMARK  135  A    between atoms: _340  and  _341
REMARK  136  A    between atoms: _346  and  _348
REMARK  137  A    between atoms: _348  and  _349
REMARK  138  A    between atoms: _348  and  _351
REMARK  139  A    between atoms: _351  and  _352
REMARK  140  A    between atoms: _354  and  _356
REMARK  141  A    between atoms: _356  and  _357
REMARK  142  A    between atoms: _356  and  _359
REMARK  143  A    between atoms: _359  and  _360
REMARK  144  A    between atoms: _360  and  _361
REMARK  145  A    between atoms: _364  and  _366
REMARK  146  A    between atoms: _366  and  _367
REMARK  147  A    between atoms: _366  and  _369
REMARK  148  A    between atoms: _369  and  _370
REMARK  149  A    between atoms: _380  and  _382
REMARK  150  A    between atoms: _382  and  _383
REMARK  151  A    between atoms: _382  and  _385
REMARK  152  A    between atoms: _385  and  _386
REMARK  153  A    between atoms: _391  and  _393
REMARK  154  A    between atoms: _393  and  _394
REMARK  155  A    between atoms: _393  and  _396
REMARK  156  A    between atoms: _396  and  _397
REMARK  157  A    between atoms: _400  and  _402
REMARK  158  A    between atoms: _402  and  _403
REMARK  159  A    between atoms: _402  and  _405
REMARK  160  A    between atoms: _405  and  _406
REMARK  161  A    between atoms: _412  and  _414
REMARK  162  A    between atoms: _414  and  _415
REMARK  163  A    between atoms: _414  and  _417
REMARK  164  A    between atoms: _417  and  _418
REMARK  165  A    between atoms: _421  and  _423
REMARK  166  A    between atoms: _423  and  _424
REMARK  167  A    between atoms: _423  and  _426
REMARK  168  A    between atoms: _426  and  _427
REMARK  169  A    between atoms: _429  and  _431
REMARK  170  A    between atoms: _431  and  _432
REMARK  171  A    between atoms: _431  and  _434
REMARK  172  A    between atoms: _434  and  _435
REMARK  173  A    between atoms: _438  and  _440
REMARK  174  A    between atoms: _440  and  _441
REMARK  175  A    between atoms: _440  and  _443
REMARK  176  A    between atoms: _443  and  _444
REMARK  177  A    between atoms: _450  and  _452
REMARK  178  A    between atoms: _452  and  _453
REMARK  179  A    between atoms: _452  and  _455
REMARK  180  A    between atoms: _455  and  _456
REMARK  181  A    between atoms: _456  and  _457
REMARK  182  A    between atoms: _457  and  _458
REMARK  183  A    between atoms: _467  and  _469
REMARK  184  A    between atoms: _469  and  _470
REMARK  185  A    between atoms: _469  and  _472
REMARK  186  A    between atoms: _472  and  _473
REMARK  187  A    between atoms: _479  and  _481
REMARK  188  A    between atoms: _481  and  _482
REMARK  189  A    between atoms: _481  and  _484
REMARK  190  A    between atoms: _484  and  _485
REMARK  191  A    between atoms: _487  and  _489
REMARK  192  A    between atoms: _489  and  _490
REMARK  193  A    between atoms: _489  and  _492
REMARK  194  A    between atoms: _492  and  _493
REMARK  195  A    between atoms: _498  and  _500
REMARK  196  A    between atoms: _500  and  _501
REMARK  197  A    between atoms: _500  and  _503
REMARK  198  A    between atoms: _503  and  _504
REMARK  199  A    between atoms: _504  and  _505
REMARK  200  A    between atoms: _508  and  _510
REMARK  201  A    between atoms: _510  and  _511
REMARK  202  A    between atoms: _513  and  _515
REMARK  203  A    between atoms: _515  and  _516
REMARK  204  A    between atoms: _515  and  _518
REMARK  205  A    between atoms: _518  and  _519
REMARK  206  A    between atoms: _521  and  _523
REMARK  207  A    between atoms: _523  and  _524
REMARK  208  A    between atoms: _523  and  _526
REMARK  209  A    between atoms: _526  and  _527
REMARK  210  A    between atoms: _533  and  _535
REMARK  211  A    between atoms: _535  and  _536
REMARK  212  A    between atoms: _535  and  _538
REMARK  213  A    between atoms: _538  and  _539
REMARK  214  A    between atoms: _545  and  _547
REMARK  215  A    between atoms: _547  and  _548
REMARK  216  A    between atoms: _547  and  _550
REMARK  217  A    between atoms: _550  and  _551
REMARK  218  A    between atoms: _554  and  _556
REMARK  219  A    between atoms: _556  and  _557
REMARK  220  A    between atoms: _556  and  _559
REMARK  221  A    between atoms: _559  and  _560
REMARK  222  A    between atoms: _563  and  _565
REMARK  223  A    between atoms: _565  and  _566
REMARK  224  A    between atoms: _565  and  _568
REMARK  225  A    between atoms: _568  and  _569
REMARK  226  A    between atoms: _574  and  _575
REMARK  227  A    between atoms: _577  and  _579
REMARK  228  A    between atoms: _579  and  _580
REMARK  229  A    between atoms: _582  and  _584
REMARK  230  A    between atoms: _584  and  _585
REMARK  231  A    between atoms: _588  and  _590
REMARK  232  A    between atoms: _590  and  _591
REMARK  233  A    between atoms: _590  and  _593
REMARK  234  A    between atoms: _593  and  _594
REMARK  235  A    between atoms: _597  and  _599
REMARK  236  A    between atoms: _599  and  _600
REMARK  237  A    between atoms: _599  and  _602
REMARK  238  A    between atoms: _602  and  _603
REMARK  239  A    between atoms: _605  and  _607
REMARK  240  A    between atoms: _607  and  _608
REMARK  241  A    between atoms: _607  and  _610
REMARK  242  A    between atoms: _613  and  _615
REMARK  243  A    between atoms: _615  and  _616
REMARK  244  A    between atoms: _615  and  _618
REMARK  245  A    between atoms: _618  and  _619
REMARK  246  A    between atoms: _624  and  _626
REMARK  247  A    between atoms: _626  and  _627
REMARK  248  A    between atoms: _626  and  _629
REMARK  249  A    between atoms: _629  and  _630
REMARK  250  A    between atoms: _640  and  _642
REMARK  251  A    between atoms: _642  and  _643
REMARK  252  A    between atoms: _642  and  _645
REMARK  253  A    between atoms: _645  and  _646
REMARK  254  A    between atoms: _646  and  _647
REMARK  255  A    between atoms: _649  and  _651
REMARK  256  A    between atoms: _651  and  _652
REMARK  257  A    between atoms: _651  and  _654
REMARK  258  A    between atoms: _654  and  _655
REMARK  259  A    between atoms: _658  and  _660
REMARK  260  A    between atoms: _660  and  _661
REMARK  261  A    between atoms: _660  and  _663
REMARK  262  A    between atoms: _663  and  _664
REMARK  263  A    between atoms: _669  and  _671
REMARK  264  A    between atoms: _671  and  _672
REMARK  265  A    between atoms: _674  and  _676
REMARK  266  A    between atoms: _676  and  _677
REMARK  267  A    between atoms: _676  and  _679
REMARK  268  A    between atoms: _679  and  _680
REMARK  269  A    between atoms: _685  and  _686
REMARK  270  A    between atoms: _688  and  _690
REMARK  271  A    between atoms: _690  and  _691
REMARK  272  A    between atoms: _690  and  _693
REMARK  273  A    between atoms: _693  and  _694
REMARK  274  A    between atoms: _694  and  _695
REMARK  275  A    between atoms: _698  and  _700
REMARK  276  A    between atoms: _700  and  _701
REMARK  277  A    between atoms: _700  and  _703
REMARK  278  A    between atoms: _703  and  _704
REMARK                            x       y       z     vdW  Elec       q    Type
REMARK                         _______ _______ _______ _____ _____    ______ ____
ROOT
ATOM      1  O   HOH     1       3.885  56.068  70.380  0.00  0.00    +0.000 OA
ENDROOT
TORSDOF 0
REMARK  Name = ../refined-set-2016/1h23/1h23_pocket.pdb
REMARK  278 active torsions:
REMARK  status: ('A' for Active; 'I' for Inactive)
REMARK    1  A    between atoms: _1  and  _3
REMARK    2  A    between atoms: _3  and  _4
REMARK    3  A    between atoms: _3  and  _6
REMARK    4  A    between atoms: _6  and  _7
REMARK    5  A    between atoms: _7  and  _8
REMARK    6  A    between atoms: _13  and  _15
REMARK    7  A    between atoms: _15  and  _16
REMARK    8  A    between atoms: _15  and  _18
REMARK    9  A    between atoms: _18  and  _19
REMARK   10  A    between atoms: _24  and  _25
REMARK   11  A    between atoms: _27  and  _29
REMARK   12  A    between atoms: _29  and  _30
REMARK   13  A    between atoms: _29  and  _32
REMARK   14  A    between atoms: _35  and  _37
REMARK   15  A    between atoms: _37  and  _38
REMARK   16  A    between atoms: _37  and  _40
REMARK   17  A    between atoms: _40  and  _41
REMARK   18  A    between atoms: _44  and  _46
REMARK   19  A    between atoms: _46  and  _47
REMARK   20  A    between atoms: _46  and  _49
REMARK   21  A    between atoms: _49  and  _50
REMARK   22  A    between atoms: _50  and  _51
REMARK   23  A    between atoms: _54  and  _56
REMARK   24  A    between atoms: _56  and  _57
REMARK   25  A    between atoms: _56  and  _59
REMARK   26  A    between atoms: _59  and  _60
REMARK   27  A    between atoms: _60  and  _61
REMARK   28  A    between atoms: _66  and  _68
REMARK   29  A    between atoms: _68  and  _69
REMARK   30  A    between atoms: _68  and  _71
REMARK   31  A    between atoms: _71  and  _72
REMARK   32  A    between atoms: _78  and  _80
REMARK   33  A    between atoms: _80  and  _81
REMARK   34  A    between atoms: _83  and  _85
REMARK   35  A    between atoms: _85  and  _86
REMARK   36  A    between atoms: _85  and  _88
REMARK   37  A    between atoms: _88  and  _89
REMARK   38  A    between atoms: _91  and  _93
REMARK   39  A    between atoms: _93  and  _94
REMARK   40  A    between atoms: _93  and  _96
REMARK   41  A    between atoms: _96  and  _97
REMARK   42  A    between atoms: _97  and  _98
REMARK   43  A    between atoms: _100  and  _102
REMARK   44  A    between atoms: _102  and  _103
REMARK   45  A    between atoms: _102  and  _105
REMARK   46  A    between atoms: _105  and  _106
REMARK   47  A    between atoms: _116  and  _118
REMARK   48  A    between atoms: _118  and  _119
REMARK   49  A    between atoms: _118  and  _121
REMARK   50  A    between atoms: _121  and  _122
REMARK   51  A    between atoms: _128  and  _129
REMARK   52  A    between atoms: _134  and  _136
REMARK   53  A    between atoms: _136  and  _137
REMARK   54  A    between atoms: _136  and  _139
REMARK   55  A    between atoms: _139  and  _140
REMARK   56  A    between atoms: _150  and  _152
REMARK   57  A    between atoms: _152  and  _153
REMARK   58  A    between atoms: _152  and  _155
REMARK   59  A    between atoms: _155  and  _156
REMARK   60  A    between atoms: _159  and  _161
REMARK   61  A    between atoms: _161  and  _162
REMARK   62  A    between atoms: _161  and  _164
REMARK   63  A    between atoms: _164  and  _165
REMARK   64  A    between atoms: _170  and  _171
REMARK   65  A    between atoms: _173  and  _175
REMARK   66  A    between atoms: _175  and  _176
REMARK   67  A    between atoms: _178  and  _180
REMARK   68  A    between atoms: _180  and  _181
REMARK   69  A    between atoms: _183  and  _185
REMARK   70  A    between atoms: _185  and  _186
REMARK   71  A    between atoms: _188  and  _190
REMARK   72  A    between atoms: _190  and  _191
REMARK   73  A    between atoms: _190  and  _193
REMARK   74  A    between atoms: _193  and  _194
REMARK   75  A    between atoms: _200  and  _202
REMARK   76  A    between atoms: _202  and  _203
REMARK   77  A    between atoms: _202  and  _205
REMARK   78  A    between atoms: _205  and  _206
REMARK   79  A    between atoms: _211  and  _212
REMARK   80  A    between atoms: _214  and  _216
REMARK   81  A    between atoms: _216  and  _217
REMARK   82  A    between atoms: _216  and  _219
REMARK   83  A    between atoms: _219  and  _220
REMARK   84  A    between atoms: _222  and  _224
REMARK   85  A    between atoms: _224  and  _225
REMARK   86  A    between atoms: _227  and  _229
REMARK   87  A    between atoms: _229  and  _230
REMARK   88  A    between atoms: _229  and  _232
REMARK   89  A    between atoms: _232  and  _233
REMARK   90  A    between atoms: _235  and  _237
REMARK   91  A    between atoms: _237  and  _238
REMARK   92  A    between atoms: _237  and  _240
REMARK   93  A    between atoms: _240  and  _241
REMARK   94  A    between atoms: _243  and  _245
REMARK   95  A    between atoms: _245  and  _246
REMARK   96  A    between atoms: _245  and  _248
REMARK   97  A    between atoms: _248  and  _249
REMARK   98  A    between atoms: _252  and  _254
REMARK   99  A    between atoms: _254  and  _255
REMARK  100  A    between atoms: _254  and  _257
REMARK  101  A    between atoms: _257  and  _258
REMARK  102  A    between atoms: _261  and  _263
REMARK  103  A    between atoms: _263  and  _264
REMARK  104  A    between atoms: _263  and  _266
REMARK  105  A    between atoms: _269  and  _271
REMARK  106  A    between atoms: _271  and  _272
REMARK  107  A    between atoms: _271  and  _274
REMARK  108  A    between atoms: _274  and  _275
REMARK  109  A    between atoms: _280  and  _281
REMARK  110  A    between atoms: _283  and  _285
REMARK  111  A    between atoms: _285  and  _286
REMARK  112  A    between atoms: _285  and  _288
REMARK  113  A    between atoms: _288  and  _289
REMARK  114  A    between atoms: _294  and  _295
REMARK  115  A    between atoms: _297  and  _299
REMARK  116  A    between atoms: _299  and  _300
REMARK  117  A    between atoms: _299  and  _302
REMARK  118  A    between atoms: _305  and  _307
REMARK  119  A    between atoms: _307  and  _308
REMARK  120  A    between atoms: _307  and  _310
REMARK  121  A    between atoms: _310  and  _311
REMARK  122  A    between atoms: _311  and  _312
REMARK  123  A    between atoms: _315  and  _317
REMARK  124  A    between atoms: _317  and  _318
REMARK  125  A    between atoms: _317  and  _320
REMARK  126  A    between atoms: _320  and  _321
REMARK  127  A    between atoms: _323  and  _325
REMARK  128  A    between atoms: _325  and  _326
REMARK  129  A    between atoms: _329  and  _331
REMARK  130  A    between atoms: _331  and  _332
REMARK  131  A    between atoms: _334  and  _336
REMARK  132  A    between atoms: _336  and  _337
REMARK  133  A    between atoms: _336  and  _339
REMARK  134  A    between atoms: _339  and  _340
REMARK  135  A    between atoms: _340  and  _341
REMARK  136  A    between atoms: _346  and  _348
REMARK  137  A    between atoms: _348  and  _349
REMARK  138  A    between atoms: _348  and  _351
REMARK  139  A    between atoms: _351  and  _352
REMARK  140  A    between atoms: _354  and  _356
REMARK  141  A    between atoms: _356  and  _357
REMARK  142  A    between atoms: _356  and  _359
REMARK  143  A    between atoms: _359  and  _360
REMARK  144  A    between atoms: _360  and  _361
REMARK  145  A    between atoms: _364  and  _366
REMARK  146  A    between atoms: _366  and  _367
REMARK  147  A    between atoms: _366  and  _369
REMARK  148  A    between atoms: _369  and  _370
REMARK  149  A    between atoms: _380  and  _382
REMARK  150  A    between atoms: _382  and  _383
REMARK  151  A    between atoms: _382  and  _385
REMARK  152  A    between atoms: _385  and  _386
REMARK  153  A    between atoms: _391  and  _393
REMARK  154  A    between atoms: _393  and  _394
REMARK  155  A    between atoms: _393  and  _396
REMARK  156  A    between atoms: _396  and  _397
REMARK  157  A    between atoms: _400  and  _402
REMARK  158  A    between atoms: _402  and  _403
REMARK  159  A    between atoms: _402  and  _405
REMARK  160  A    between atoms: _405  and  _406
REMARK  161  A    between atoms: _412  and  _414
REMARK  162  A    between atoms: _414  and  _415
REMARK  163  A    between atoms: _414  and  _417
REMARK  164  A    between atoms: _417  and  _418
REMARK  165  A    between atoms: _421  and  _423
REMARK  166  A    between atoms: _423  and  _424
REMARK  167  A    between atoms: _423  and  _426
REMARK  168  A    between atoms: _426  and  _427
REMARK  169  A    between atoms: _429  and  _431
REMARK  170  A    between atoms: _431  and  _432
REMARK  171  A    between atoms: _431  and  _434
REMARK  172  A    between atoms: _434  and  _435
REMARK  173  A    between atoms: _438  and  _440
REMARK  174  A    between atoms: _440  and  _441
REMARK  175  A    between atoms: _440  and  _443
REMARK  176  A    between atoms: _443  and  _444
REMARK  177  A    between atoms: _450  and  _452
REMARK  178  A    between atoms: _452  and  _453
REMARK  179  A    between atoms: _452  and  _455
REMARK  180  A    between atoms: _455  and  _456
REMARK  181  A    between atoms: _456  and  _457
REMARK  182  A    between atoms: _457  and  _458
REMARK  183  A    between atoms: _467  and  _469
REMARK  184  A    between atoms: _469  and  _470
REMARK  185  A    between atoms: _469  and  _472
REMARK  186  A    between atoms: _472  and  _473
REMARK  187  A    between atoms: _479  and  _481
REMARK  188  A    between atoms: _481  and  _482
REMARK  189  A    between atoms: _481  and  _484
REMARK  190  A    between atoms: _484  and  _485
REMARK  191  A    between atoms: _487  and  _489
REMARK  192  A    between atoms: _489  and  _490
REMARK  193  A    between atoms: _489  and  _492
REMARK  194  A    between atoms: _492  and  _493
REMARK  195  A    between atoms: _498  and  _500
REMARK  196  A    between atoms: _500  and  _501
REMARK  197  A    between atoms: _500  and  _503
REMARK  198  A    between atoms: _503  and  _504
REMARK  199  A    between atoms: _504  and  _505
REMARK  200  A    between atoms: _508  and  _510
REMARK  201  A    between atoms: _510  and  _511
REMARK  202  A    between atoms: _513  and  _515
REMARK  203  A    between atoms: _515  and  _516
REMARK  204  A    between atoms: _515  and  _518
REMARK  205  A    between atoms: _518  and  _519
REMARK  206  A    between atoms: _521  and  _523
REMARK  207  A    between atoms: _523  and  _524
REMARK  208  A    between atoms: _523  and  _526
REMARK  209  A    between atoms: _526  and  _527
REMARK  210  A    between atoms: _533  and  _535
REMARK  211  A    between atoms: _535  and  _536
REMARK  212  A    between atoms: _535  and  _538
REMARK  213  A    between atoms: _538  and  _539
REMARK  214  A    between atoms: _545  and  _547
REMARK  215  A    between atoms: _547  and  _548
REMARK  216  A    between atoms: _547  and  _550
REMARK  217  A    between atoms: _550  and  _551
REMARK  218  A    between atoms: _554  and  _556
REMARK  219  A    between atoms: _556  and  _557
REMARK  220  A    between atoms: _556  and  _559
REMARK  221  A    between atoms: _559  and  _560
REMARK  222  A    between atoms: _563  and  _565
REMARK  223  A    between atoms: _565  and  _566
REMARK  224  A    between atoms: _565  and  _568
REMARK  225  A    between atoms: _568  and  _569
REMARK  226  A    between atoms: _574  and  _575
REMARK  227  A    between atoms: _577  and  _579
REMARK  228  A    between atoms: _579  and  _580
REMARK  229  A    between atoms: _582  and  _584
REMARK  230  A    between atoms: _584  and  _585
REMARK  231  A    between atoms: _588  and  _590
REMARK  232  A    between atoms: _590  and  _591
REMARK  233  A    between atoms: _590  and  _593
REMARK  234  A    between atoms: _593  and  _594
REMARK  235  A    between atoms: _597  and  _599
REMARK  236  A    between atoms: _599  and  _600
REMARK  237  A    between atoms: _599  and  _602
REMARK  238  A    between atoms: _602  and  _603
REMARK  239  A    between atoms: _605  and  _607
REMARK  240  A    between atoms: _607  and  _608
REMARK  241  A    between atoms: _607  and  _610
REMARK  242  A    between atoms: _613  and  _615
REMARK  243  A    between atoms: _615  and  _616
REMARK  244  A    between atoms: _615  and  _618
REMARK  245  A    between atoms: _618  and  _619
REMARK  246  A    between atoms: _624  and  _626
REMARK  247  A    between atoms: _626  and  _627
REMARK  248  A    between atoms: _626  and  _629
REMARK  249  A    between atoms: _629  and  _630
REMARK  250  A    between atoms: _640  and  _642
REMARK  251  A    between atoms: _642  and  _643
REMARK  252  A    between atoms: _642  and  _645
REMARK  253  A    between atoms: _645  and  _646
REMARK  254  A    between atoms: _646  and  _647
REMARK  255  A    between atoms: _649  and  _651
REMARK  256  A    between atoms: _651  and  _652
REMARK  257  A    between atoms: _651  and  _654
REMARK  258  A    between atoms: _654  and  _655
REMARK  259  A    between atoms: _658  and  _660
REMARK  260  A    between atoms: _660  and  _661
REMARK  261  A    between atoms: _660  and  _663
REMARK  262  A    between atoms: _663  and  _664
REMARK  263  A    between atoms: _669  and  _671
REMARK  264  A    between atoms: _671  and  _672
REMARK  265  A    between atoms: _674  and  _676
REMARK  266  A    between atoms: _676  and  _677
REMARK  267  A    between atoms: _676  and  _679
REMARK  268  A    between atoms: _679  and  _680
REMARK  269  A    between atoms: _685  and  _686
REMARK  270  A    between atoms: _688  and  _690
REMARK  271  A    between atoms: _690  and  _691
REMARK  272  A    between atoms: _690  and  _693
REMARK  273  A    between atoms: _693  and  _694
REMARK  274  A    between atoms: _694  and  _695
REMARK  275  A    between atoms: _698  and  _700
REMARK  276  A    between atoms: _700  and  _701
REMARK  277  A    between atoms: _700  and  _703
REMARK  278  A    between atoms: _703  and  _704
REMARK                            x       y       z     vdW  Elec       q    Type
REMARK                         _______ _______ _______ _____ _____    ______ ____
ROOT
ATOM      1  O   HOH     1      11.815  67.218  67.554  0.00  0.00    +0.000 OA
ENDROOT
TORSDOF 0
REMARK  Name = ../refined-set-2016/1h23/1h23_pocket.pdb
REMARK  278 active torsions:
REMARK  status: ('A' for Active; 'I' for Inactive)
REMARK    1  A    between atoms: _1  and  _3
REMARK    2  A    between atoms: _3  and  _4
REMARK    3  A    between atoms: _3  and  _6
REMARK    4  A    between atoms: _6  and  _7
REMARK    5  A    between atoms: _7  and  _8
REMARK    6  A    between atoms: _13  and  _15
REMARK    7  A    between atoms: _15  and  _16
REMARK    8  A    between atoms: _15  and  _18
REMARK    9  A    between atoms: _18  and  _19
REMARK   10  A    between atoms: _24  and  _25
REMARK   11  A    between atoms: _27  and  _29
REMARK   12  A    between atoms: _29  and  _30
REMARK   13  A    between atoms: _29  and  _32
REMARK   14  A    between atoms: _35  and  _37
REMARK   15  A    between atoms: _37  and  _38
REMARK   16  A    between atoms: _37  and  _40
REMARK   17  A    between atoms: _40  and  _41
REMARK   18  A    between atoms: _44  and  _46
REMARK   19  A    between atoms: _46  and  _47
REMARK   20  A    between atoms: _46  and  _49
REMARK   21  A    between atoms: _49  and  _50
REMARK   22  A    between atoms: _50  and  _51
REMARK   23  A    between atoms: _54  and  _56
REMARK   24  A    between atoms: _56  and  _57
REMARK   25  A    between atoms: _56  and  _59
REMARK   26  A    between atoms: _59  and  _60
REMARK   27  A    between atoms: _60  and  _61
REMARK   28  A    between atoms: _66  and  _68
REMARK   29  A    between atoms: _68  and  _69
REMARK   30  A    between atoms: _68  and  _71
REMARK   31  A    between atoms: _71  and  _72
REMARK   32  A    between atoms: _78  and  _80
REMARK   33  A    between atoms: _80  and  _81
REMARK   34  A    between atoms: _83  and  _85
REMARK   35  A    between atoms: _85  and  _86
REMARK   36  A    between atoms: _85  and  _88
REMARK   37  A    between atoms: _88  and  _89
REMARK   38  A    between atoms: _91  and  _93
REMARK   39  A    between atoms: _93  and  _94
REMARK   40  A    between atoms: _93  and  _96
REMARK   41  A    between atoms: _96  and  _97
REMARK   42  A    between atoms: _97  and  _98
REMARK   43  A    between atoms: _100  and  _102
REMARK   44  A    between atoms: _102  and  _103
REMARK   45  A    between atoms: _102  and  _105
REMARK   46  A    between atoms: _105  and  _106
REMARK   47  A    between atoms: _116  and  _118
REMARK   48  A    between atoms: _118  and  _119
REMARK   49  A    between atoms: _118  and  _121
REMARK   50  A    between atoms: _121  and  _122
REMARK   51  A    between atoms: _128  and  _129
REMARK   52  A    between atoms: _134  and  _136
REMARK   53  A    between atoms: _136  and  _137
REMARK   54  A    between atoms: _136  and  _139
REMARK   55  A    between atoms: _139  and  _140
REMARK   56  A    between atoms: _150  and  _152
REMARK   57  A    between atoms: _152  and  _153
REMARK   58  A    between atoms: _152  and  _155
REMARK   59  A    between atoms: _155  and  _156
REMARK   60  A    between atoms: _159  and  _161
REMARK   61  A    between atoms: _161  and  _162
REMARK   62  A    between atoms: _161  and  _164
REMARK   63  A    between atoms: _164  and  _165
REMARK   64  A    between atoms: _170  and  _171
REMARK   65  A    between atoms: _173  and  _175
REMARK   66  A    between atoms: _175  and  _176
REMARK   67  A    between atoms: _178  and  _180
REMARK   68  A    between atoms: _180  and  _181
REMARK   69  A    between atoms: _183  and  _185
REMARK   70  A    between atoms: _185  and  _186
REMARK   71  A    between atoms: _188  and  _190
REMARK   72  A    between atoms: _190  and  _191
REMARK   73  A    between atoms: _190  and  _193
REMARK   74  A    between atoms: _193  and  _194
REMARK   75  A    between atoms: _200  and  _202
REMARK   76  A    between atoms: _202  and  _203
REMARK   77  A    between atoms: _202  and  _205
REMARK   78  A    between atoms: _205  and  _206
REMARK   79  A    between atoms: _211  and  _212
REMARK   80  A    between atoms: _214  and  _216
REMARK   81  A    between atoms: _216  and  _217
REMARK   82  A    between atoms: _216  and  _219
REMARK   83  A    between atoms: _219  and  _220
REMARK   84  A    between atoms: _222  and  _224
REMARK   85  A    between atoms: _224  and  _225
REMARK   86  A    between atoms: _227  and  _229
REMARK   87  A    between atoms: _229  and  _230
REMARK   88  A    between atoms: _229  and  _232
REMARK   89  A    between atoms: _232  and  _233
REMARK   90  A    between atoms: _235  and  _237
REMARK   91  A    between atoms: _237  and  _238
REMARK   92  A    between atoms: _237  and  _240
REMARK   93  A    between atoms: _240  and  _241
REMARK   94  A    between atoms: _243  and  _245
REMARK   95  A    between atoms: _245  and  _246
REMARK   96  A    between atoms: _245  and  _248
REMARK   97  A    between atoms: _248  and  _249
REMARK   98  A    between atoms: _252  and  _254
REMARK   99  A    between atoms: _254  and  _255
REMARK  100  A    between atoms: _254  and  _257
REMARK  101  A    between atoms: _257  and  _258
REMARK  102  A    between atoms: _261  and  _263
REMARK  103  A    between atoms: _263  and  _264
REMARK  104  A    between atoms: _263  and  _266
REMARK  105  A    between atoms: _269  and  _271
REMARK  106  A    between atoms: _271  and  _272
REMARK  107  A    between atoms: _271  and  _274
REMARK  108  A    between atoms: _274  and  _275
REMARK  109  A    between atoms: _280  and  _281
REMARK  110  A    between atoms: _283  and  _285
REMARK  111  A    between atoms: _285  and  _286
REMARK  112  A    between atoms: _285  and  _288
REMARK  113  A    between atoms: _288  and  _289
REMARK  114  A    between atoms: _294  and  _295
REMARK  115  A    between atoms: _297  and  _299
REMARK  116  A    between atoms: _299  and  _300
REMARK  117  A    between atoms: _299  and  _302
REMARK  118  A    between atoms: _305  and  _307
REMARK  119  A    between atoms: _307  and  _308
REMARK  120  A    between atoms: _307  and  _310
REMARK  121  A    between atoms: _310  and  _311
REMARK  122  A    between atoms: _311  and  _312
REMARK  123  A    between atoms: _315  and  _317
REMARK  124  A    between atoms: _317  and  _318
REMARK  125  A    between atoms: _317  and  _320
REMARK  126  A    between atoms: _320  and  _321
REMARK  127  A    between atoms: _323  and  _325
REMARK  128  A    between atoms: _325  and  _326
REMARK  129  A    between atoms: _329  and  _331
REMARK  130  A    between atoms: _331  and  _332
REMARK  131  A    between atoms: _334  and  _336
REMARK  132  A    between atoms: _336  and  _337
REMARK  133  A    between atoms: _336  and  _339
REMARK  134  A    between atoms: _339  and  _340
REMARK  135  A    between atoms: _340  and  _341
REMARK  136  A    between atoms: _346  and  _348
REMARK  137  A    between atoms: _348  and  _349
REMARK  138  A    between atoms: _348  and  _351
REMARK  139  A    between atoms: _351  and  _352
REMARK  140  A    between atoms: _354  and  _356
REMARK  141  A    between atoms: _356  and  _357
REMARK  142  A    between atoms: _356  and  _359
REMARK  143  A    between atoms: _359  and  _360
REMARK  144  A    between atoms: _360  and  _361
REMARK  145  A    between atoms: _364  and  _366
REMARK  146  A    between atoms: _366  and  _367
REMARK  147  A    between atoms: _366  and  _369
REMARK  148  A    between atoms: _369  and  _370
REMARK  149  A    between atoms: _380  and  _382
REMARK  150  A    between atoms: _382  and  _383
REMARK  151  A    between atoms: _382  and  _385
REMARK  152  A    between atoms: _385  and  _386
REMARK  153  A    between atoms: _391  and  _393
REMARK  154  A    between atoms: _393  and  _394
REMARK  155  A    between atoms: _393  and  _396
REMARK  156  A    between atoms: _396  and  _397
REMARK  157  A    between atoms: _400  and  _402
REMARK  158  A    between atoms: _402  and  _403
REMARK  159  A    between atoms: _402  and  _405
REMARK  160  A    between atoms: _405  and  _406
REMARK  161  A    between atoms: _412  and  _414
REMARK  162  A    between atoms: _414  and  _415
REMARK  163  A    between atoms: _414  and  _417
REMARK  164  A    between atoms: _417  and  _418
REMARK  165  A    between atoms: _421  and  _423
REMARK  166  A    between atoms: _423  and  _424
REMARK  167  A    between atoms: _423  and  _426
REMARK  168  A    between atoms: _426  and  _427
REMARK  169  A    between atoms: _429  and  _431
REMARK  170  A    between atoms: _431  and  _432
REMARK  171  A    between atoms: _431  and  _434
REMARK  172  A    between atoms: _434  and  _435
REMARK  173  A    between atoms: _438  and  _440
REMARK  174  A    between atoms: _440  and  _441
REMARK  175  A    between atoms: _440  and  _443
REMARK  176  A    between atoms: _443  and  _444
REMARK  177  A    between atoms: _450  and  _452
REMARK  178  A    between atoms: _452  and  _453
REMARK  179  A    between atoms: _452  and  _455
REMARK  180  A    between atoms: _455  and  _456
REMARK  181  A    between atoms: _456  and  _457
REMARK  182  A    between atoms: _457  and  _458
REMARK  183  A    between atoms: _467  and  _469
REMARK  184  A    between atoms: _469  and  _470
REMARK  185  A    between atoms: _469  and  _472
REMARK  186  A    between atoms: _472  and  _473
REMARK  187  A    between atoms: _479  and  _481
REMARK  188  A    between atoms: _481  and  _482
REMARK  189  A    between atoms: _481  and  _484
REMARK  190  A    between atoms: _484  and  _485
REMARK  191  A    between atoms: _487  and  _489
REMARK  192  A    between atoms: _489  and  _490
REMARK  193  A    between atoms: _489  and  _492
REMARK  194  A    between atoms: _492  and  _493
REMARK  195  A    between atoms: _498  and  _500
REMARK  196  A    between atoms: _500  and  _501
REMARK  197  A    between atoms: _500  and  _503
REMARK  198  A    between atoms: _503  and  _504
REMARK  199  A    between atoms: _504  and  _505
REMARK  200  A    between atoms: _508  and  _510
REMARK  201  A    between atoms: _510  and  _511
REMARK  202  A    between atoms: _513  and  _515
REMARK  203  A    between atoms: _515  and  _516
REMARK  204  A    between atoms: _515  and  _518
REMARK  205  A    between atoms: _518  and  _519
REMARK  206  A    between atoms: _521  and  _523
REMARK  207  A    between atoms: _523  and  _524
REMARK  208  A    between atoms: _523  and  _526
REMARK  209  A    between atoms: _526  and  _527
REMARK  210  A    between atoms: _533  and  _535
REMARK  211  A    between atoms: _535  and  _536
REMARK  212  A    between atoms: _535  and  _538
REMARK  213  A    between atoms: _538  and  _539
REMARK  214  A    between atoms: _545  and  _547
REMARK  215  A    between atoms: _547  and  _548
REMARK  216  A    between atoms: _547  and  _550
REMARK  217  A    between atoms: _550  and  _551
REMARK  218  A    between atoms: _554  and  _556
REMARK  219  A    between atoms: _556  and  _557
REMARK  220  A    between atoms: _556  and  _559
REMARK  221  A    between atoms: _559  and  _560
REMARK  222  A    between atoms: _563  and  _565
REMARK  223  A    between atoms: _565  and  _566
REMARK  224  A    between atoms: _565  and  _568
REMARK  225  A    between atoms: _568  and  _569
REMARK  226  A    between atoms: _574  and  _575
REMARK  227  A    between atoms: _577  and  _579
REMARK  228  A    between atoms: _579  and  _580
REMARK  229  A    between atoms: _582  and  _584
REMARK  230  A    between atoms: _584  and  _585
REMARK  231  A    between atoms: _588  and  _590
REMARK  232  A    between atoms: _590  and  _591
REMARK  233  A    between atoms: _590  and  _593
REMARK  234  A    between atoms: _593  and  _594
REMARK  235  A    between atoms: _597  and  _599
REMARK  236  A    between atoms: _599  and  _600
REMARK  237  A    between atoms: _599  and  _602
REMARK  238  A    between atoms: _602  and  _603
REMARK  239  A    between atoms: _605  and  _607
REMARK  240  A    between atoms: _607  and  _608
REMARK  241  A    between atoms: _607  and  _610
REMARK  242  A    between atoms: _613  and  _615
REMARK  243  A    between atoms: _615  and  _616
REMARK  244  A    between atoms: _615  and  _618
REMARK  245  A    between atoms: _618  and  _619
REMARK  246  A    between atoms: _624  and  _626
REMARK  247  A    between atoms: _626  and  _627
REMARK  248  A    between atoms: _626  and  _629
REMARK  249  A    between atoms: _629  and  _630
REMARK  250  A    between atoms: _640  and  _642
REMARK  251  A    between atoms: _642  and  _643
REMARK  252  A    between atoms: _642  and  _645
REMARK  253  A    between atoms: _645  and  _646
REMARK  254  A    between atoms: _646  and  _647
REMARK  255  A    between atoms: _649  and  _651
REMARK  256  A    between atoms: _651  and  _652
REMARK  257  A    between atoms: _651  and  _654
REMARK  258  A    between atoms: _654  and  _655
REMARK  259  A    between atoms: _658  and  _660
REMARK  260  A    between atoms: _660  and  _661
REMARK  261  A    between atoms: _660  and  _663
REMARK  262  A    between atoms: _663  and  _664
REMARK  263  A    between atoms: _669  and  _671
REMARK  264  A    between atoms: _671  and  _672
REMARK  265  A    between atoms: _674  and  _676
REMARK  266  A    between atoms: _676  and  _677
REMARK  267  A    between atoms: _676  and  _679
REMARK  268  A    between atoms: _679  and  _680
REMARK  269  A    between atoms: _685  and  _686
REMARK  270  A    between atoms: _688  and  _690
REMARK  271  A    between atoms: _690  and  _691
REMARK  272  A    between atoms: _690  and  _693
REMARK  273  A    between atoms: _693  and  _694
REMARK  274  A    between atoms: _694  and  _695
REMARK  275  A    between atoms: _698  and  _700
REMARK  276  A    between atoms: _700  and  _701
REMARK  277  A    between atoms: _700  and  _703
REMARK  278  A    between atoms: _703  and  _704
REMARK                            x       y       z     vdW  Elec       q    Type
REMARK                         _______ _______ _______ _____ _____    ______ ____
ROOT
ATOM      1  O   HOH     1       7.258  63.365  79.070  0.00  0.00    +0.000 OA
ENDROOT
TORSDOF 0
REMARK  Name = ../refined-set-2016/1h23/1h23_pocket.pdb
REMARK  278 active torsions:
REMARK  status: ('A' for Active; 'I' for Inactive)
REMARK    1  A    between atoms: _1  and  _3
REMARK    2  A    between atoms: _3  and  _4
REMARK    3  A    between atoms: _3  and  _6
REMARK    4  A    between atoms: _6  and  _7
REMARK    5  A    between atoms: _7  and  _8
REMARK    6  A    between atoms: _13  and  _15
REMARK    7  A    between atoms: _15  and  _16
REMARK    8  A    between atoms: _15  and  _18
REMARK    9  A    between atoms: _18  and  _19
REMARK   10  A    between atoms: _24  and  _25
REMARK   11  A    between atoms: _27  and  _29
REMARK   12  A    between atoms: _29  and  _30
REMARK   13  A    between atoms: _29  and  _32
REMARK   14  A    between atoms: _35  and  _37
REMARK   15  A    between atoms: _37  and  _38
REMARK   16  A    between atoms: _37  and  _40
REMARK   17  A    between atoms: _40  and  _41
REMARK   18  A    between atoms: _44  and  _46
REMARK   19  A    between atoms: _46  and  _47
REMARK   20  A    between atoms: _46  and  _49
REMARK   21  A    between atoms: _49  and  _50
REMARK   22  A    between atoms: _50  and  _51
REMARK   23  A    between atoms: _54  and  _56
REMARK   24  A    between atoms: _56  and  _57
REMARK   25  A    between atoms: _56  and  _59
REMARK   26  A    between atoms: _59  and  _60
REMARK   27  A    between atoms: _60  and  _61
REMARK   28  A    between atoms: _66  and  _68
REMARK   29  A    between atoms: _68  and  _69
REMARK   30  A    between atoms: _68  and  _71
REMARK   31  A    between atoms: _71  and  _72
REMARK   32  A    between atoms: _78  and  _80
REMARK   33  A    between atoms: _80  and  _81
REMARK   34  A    between atoms: _83  and  _85
REMARK   35  A    between atoms: _85  and  _86
REMARK   36  A    between atoms: _85  and  _88
REMARK   37  A    between atoms: _88  and  _89
REMARK   38  A    between atoms: _91  and  _93
REMARK   39  A    between atoms: _93  and  _94
REMARK   40  A    between atoms: _93  and  _96
REMARK   41  A    between atoms: _96  and  _97
REMARK   42  A    between atoms: _97  and  _98
REMARK   43  A    between atoms: _100  and  _102
REMARK   44  A    between atoms: _102  and  _103
REMARK   45  A    between atoms: _102  and  _105
REMARK   46  A    between atoms: _105  and  _106
REMARK   47  A    between atoms: _116  and  _118
REMARK   48  A    between atoms: _118  and  _119
REMARK   49  A    between atoms: _118  and  _121
REMARK   50  A    between atoms: _121  and  _122
REMARK   51  A    between atoms: _128  and  _129
REMARK   52  A    between atoms: _134  and  _136
REMARK   53  A    between atoms: _136  and  _137
REMARK   54  A    between atoms: _136  and  _139
REMARK   55  A    between atoms: _139  and  _140
REMARK   56  A    between atoms: _150  and  _152
REMARK   57  A    between atoms: _152  and  _153
REMARK   58  A    between atoms: _152  and  _155
REMARK   59  A    between atoms: _155  and  _156
REMARK   60  A    between atoms: _159  and  _161
REMARK   61  A    between atoms: _161  and  _162
REMARK   62  A    between atoms: _161  and  _164
REMARK   63  A    between atoms: _164  and  _165
REMARK   64  A    between atoms: _170  and  _171
REMARK   65  A    between atoms: _173  and  _175
REMARK   66  A    between atoms: _175  and  _176
REMARK   67  A    between atoms: _178  and  _180
REMARK   68  A    between atoms: _180  and  _181
REMARK   69  A    between atoms: _183  and  _185
REMARK   70  A    between atoms: _185  and  _186
REMARK   71  A    between atoms: _188  and  _190
REMARK   72  A    between atoms: _190  and  _191
REMARK   73  A    between atoms: _190  and  _193
REMARK   74  A    between atoms: _193  and  _194
REMARK   75  A    between atoms: _200  and  _202
REMARK   76  A    between atoms: _202  and  _203
REMARK   77  A    between atoms: _202  and  _205
REMARK   78  A    between atoms: _205  and  _206
REMARK   79  A    between atoms: _211  and  _212
REMARK   80  A    between atoms: _214  and  _216
REMARK   81  A    between atoms: _216  and  _217
REMARK   82  A    between atoms: _216  and  _219
REMARK   83  A    between atoms: _219  and  _220
REMARK   84  A    between atoms: _222  and  _224
REMARK   85  A    between atoms: _224  and  _225
REMARK   86  A    between atoms: _227  and  _229
REMARK   87  A    between atoms: _229  and  _230
REMARK   88  A    between atoms: _229  and  _232
REMARK   89  A    between atoms: _232  and  _233
REMARK   90  A    between atoms: _235  and  _237
REMARK   91  A    between atoms: _237  and  _238
REMARK   92  A    between atoms: _237  and  _240
REMARK   93  A    between atoms: _240  and  _241
REMARK   94  A    between atoms: _243  and  _245
REMARK   95  A    between atoms: _245  and  _246
REMARK   96  A    between atoms: _245  and  _248
REMARK   97  A    between atoms: _248  and  _249
REMARK   98  A    between atoms: _252  and  _254
REMARK   99  A    between atoms: _254  and  _255
REMARK  100  A    between atoms: _254  and  _257
REMARK  101  A    between atoms: _257  and  _258
REMARK  102  A    between atoms: _261  and  _263
REMARK  103  A    between atoms: _263  and  _264
REMARK  104  A    between atoms: _263  and  _266
REMARK  105  A    between atoms: _269  and  _271
REMARK  106  A    between atoms: _271  and  _272
REMARK  107  A    between atoms: _271  and  _274
REMARK  108  A    between atoms: _274  and  _275
REMARK  109  A    between atoms: _280  and  _281
REMARK  110  A    between atoms: _283  and  _285
REMARK  111  A    between atoms: _285  and  _286
REMARK  112  A    between atoms: _285  and  _288
REMARK  113  A    between atoms: _288  and  _289
REMARK  114  A    between atoms: _294  and  _295
REMARK  115  A    between atoms: _297  and  _299
REMARK  116  A    between atoms: _299  and  _300
REMARK  117  A    between atoms: _299  and  _302
REMARK  118  A    between atoms: _305  and  _307
REMARK  119  A    between atoms: _307  and  _308
REMARK  120  A    between atoms: _307  and  _310
REMARK  121  A    between atoms: _310  and  _311
REMARK  122  A    between atoms: _311  and  _312
REMARK  123  A    between atoms: _315  and  _317
REMARK  124  A    between atoms: _317  and  _318
REMARK  125  A    between atoms: _317  and  _320
REMARK  126  A    between atoms: _320  and  _321
REMARK  127  A    between atoms: _323  and  _325
REMARK  128  A    between atoms: _325  and  _326
REMARK  129  A    between atoms: _329  and  _331
REMARK  130  A    between atoms: _331  and  _332
REMARK  131  A    between atoms: _334  and  _336
REMARK  132  A    between atoms: _336  and  _337
REMARK  133  A    between atoms: _336  and  _339
REMARK  134  A    between atoms: _339  and  _340
REMARK  135  A    between atoms: _340  and  _341
REMARK  136  A    between atoms: _346  and  _348
REMARK  137  A    between atoms: _348  and  _349
REMARK  138  A    between atoms: _348  and  _351
REMARK  139  A    between atoms: _351  and  _352
REMARK  140  A    between atoms: _354  and  _356
REMARK  141  A    between atoms: _356  and  _357
REMARK  142  A    between atoms: _356  and  _359
REMARK  143  A    between atoms: _359  and  _360
REMARK  144  A    between atoms: _360  and  _361
REMARK  145  A    between atoms: _364  and  _366
REMARK  146  A    between atoms: _366  and  _367
REMARK  147  A    between atoms: _366  and  _369
REMARK  148  A    between atoms: _369  and  _370
REMARK  149  A    between atoms: _380  and  _382
REMARK  150  A    between atoms: _382  and  _383
REMARK  151  A    between atoms: _382  and  _385
REMARK  152  A    between atoms: _385  and  _386
REMARK  153  A    between atoms: _391  and  _393
REMARK  154  A    between atoms: _393  and  _394
REMARK  155  A    between atoms: _393  and  _396
REMARK  156  A    between atoms: _396  and  _397
REMARK  157  A    between atoms: _400  and  _402
REMARK  158  A    between atoms: _402  and  _403
REMARK  159  A    between atoms: _402  and  _405
REMARK  160  A    between atoms: _405  and  _406
REMARK  161  A    between atoms: _412  and  _414
REMARK  162  A    between atoms: _414  and  _415
REMARK  163  A    between atoms: _414  and  _417
REMARK  164  A    between atoms: _417  and  _418
REMARK  165  A    between atoms: _421  and  _423
REMARK  166  A    between atoms: _423  and  _424
REMARK  167  A    between atoms: _423  and  _426
REMARK  168  A    between atoms: _426  and  _427
REMARK  169  A    between atoms: _429  and  _431
REMARK  170  A    between atoms: _431  and  _432
REMARK  171  A    between atoms: _431  and  _434
REMARK  172  A    between atoms: _434  and  _435
REMARK  173  A    between atoms: _438  and  _440
REMARK  174  A    between atoms: _440  and  _441
REMARK  175  A    between atoms: _440  and  _443
REMARK  176  A    between atoms: _443  and  _444
REMARK  177  A    between atoms: _450  and  _452
REMARK  178  A    between atoms: _452  and  _453
REMARK  179  A    between atoms: _452  and  _455
REMARK  180  A    between atoms: _455  and  _456
REMARK  181  A    between atoms: _456  and  _457
REMARK  182  A    between atoms: _457  and  _458
REMARK  183  A    between atoms: _467  and  _469
REMARK  184  A    between atoms: _469  and  _470
REMARK  185  A    between atoms: _469  and  _472
REMARK  186  A    between atoms: _472  and  _473
REMARK  187  A    between atoms: _479  and  _481
REMARK  188  A    between atoms: _481  and  _482
REMARK  189  A    between atoms: _481  and  _484
REMARK  190  A    between atoms: _484  and  _485
REMARK  191  A    between atoms: _487  and  _489
REMARK  192  A    between atoms: _489  and  _490
REMARK  193  A    between atoms: _489  and  _492
REMARK  194  A    between atoms: _492  and  _493
REMARK  195  A    between atoms: _498  and  _500
REMARK  196  A    between atoms: _500  and  _501
REMARK  197  A    between atoms: _500  and  _503
REMARK  198  A    between atoms: _503  and  _504
REMARK  199  A    between atoms: _504  and  _505
REMARK  200  A    between atoms: _508  and  _510
REMARK  201  A    between atoms: _510  and  _511
REMARK  202  A    between atoms: _513  and  _515
REMARK  203  A    between atoms: _515  and  _516
REMARK  204  A    between atoms: _515  and  _518
REMARK  205  A    between atoms: _518  and  _519
REMARK  206  A    between atoms: _521  and  _523
REMARK  207  A    between atoms: _523  and  _524
REMARK  208  A    between atoms: _523  and  _526
REMARK  209  A    between atoms: _526  and  _527
REMARK  210  A    between atoms: _533  and  _535
REMARK  211  A    between atoms: _535  and  _536
REMARK  212  A    between atoms: _535  and  _538
REMARK  213  A    between atoms: _538  and  _539
REMARK  214  A    between atoms: _545  and  _547
REMARK  215  A    between atoms: _547  and  _548
REMARK  216  A    between atoms: _547  and  _550
REMARK  217  A    between atoms: _550  and  _551
REMARK  218  A    between atoms: _554  and  _556
REMARK  219  A    between atoms: _556  and  _557
REMARK  220  A    between atoms: _556  and  _559
REMARK  221  A    between atoms: _559  and  _560
REMARK  222  A    between atoms: _563  and  _565
REMARK  223  A    between atoms: _565  and  _566
REMARK  224  A    between atoms: _565  and  _568
REMARK  225  A    between atoms: _568  and  _569
REMARK  226  A    between atoms: _574  and  _575
REMARK  227  A    between atoms: _577  and  _579
REMARK  228  A    between atoms: _579  and  _580
REMARK  229  A    between atoms: _582  and  _584
REMARK  230  A    between atoms: _584  and  _585
REMARK  231  A    between atoms: _588  and  _590
REMARK  232  A    between atoms: _590  and  _591
REMARK  233  A    between atoms: _590  and  _593
REMARK  234  A    between atoms: _593  and  _594
REMARK  235  A    between atoms: _597  and  _599
REMARK  236  A    between atoms: _599  and  _600
REMARK  237  A    between atoms: _599  and  _602
REMARK  238  A    between atoms: _602  and  _603
REMARK  239  A    between atoms: _605  and  _607
REMARK  240  A    between atoms: _607  and  _608
REMARK  241  A    between atoms: _607  and  _610
REMARK  242  A    between atoms: _613  and  _615
REMARK  243  A    between atoms: _615  and  _616
REMARK  244  A    between atoms: _615  and  _618
REMARK  245  A    between atoms: _618  and  _619
REMARK  246  A    between atoms: _624  and  _626
REMARK  247  A    between atoms: _626  and  _627
REMARK  248  A    between atoms: _626  and  _629
REMARK  249  A    between atoms: _629  and  _630
REMARK  250  A    between atoms: _640  and  _642
REMARK  251  A    between atoms: _642  and  _643
REMARK  252  A    between atoms: _642  and  _645
REMARK  253  A    between atoms: _645  and  _646
REMARK  254  A    between atoms: _646  and  _647
REMARK  255  A    between atoms: _649  and  _651
REMARK  256  A    between atoms: _651  and  _652
REMARK  257  A    between atoms: _651  and  _654
REMARK  258  A    between atoms: _654  and  _655
REMARK  259  A    between atoms: _658  and  _660
REMARK  260  A    between atoms: _660  and  _661
REMARK  261  A    between atoms: _660  and  _663
REMARK  262  A    between atoms: _663  and  _664
REMARK  263  A    between atoms: _669  and  _671
REMARK  264  A    between atoms: _671  and  _672
REMARK  265  A    between atoms: _674  and  _676
REMARK  266  A    between atoms: _676  and  _677
REMARK  267  A    between atoms: _676  and  _679
REMARK  268  A    between atoms: _679  and  _680
REMARK  269  A    between atoms: _685  and  _686
REMARK  270  A    between atoms: _688  and  _690
REMARK  271  A    between atoms: _690  and  _691
REMARK  272  A    between atoms: _690  and  _693
REMARK  273  A    between atoms: _693  and  _694
REMARK  274  A    between atoms: _694  and  _695
REMARK  275  A    between atoms: _698  and  _700
REMARK  276  A    between atoms: _700  and  _701
REMARK  277  A    between atoms: _700  and  _703
REMARK  278  A    between atoms: _703  and  _704
REMARK                            x       y       z     vdW  Elec       q    Type
REMARK                         _______ _______ _______ _____ _____    ______ ____
ROOT
ATOM      1  O   HOH     1       4.633  57.508  76.259  0.00  0.00    +0.000 OA
ENDROOT
TORSDOF 0
REMARK  Name = ../refined-set-2016/1h23/1h23_pocket.pdb
REMARK  278 active torsions:
REMARK  status: ('A' for Active; 'I' for Inactive)
REMARK    1  A    between atoms: _1  and  _3
REMARK    2  A    between atoms: _3  and  _4
REMARK    3  A    between atoms: _3  and  _6
REMARK    4  A    between atoms: _6  and  _7
REMARK    5  A    between atoms: _7  and  _8
REMARK    6  A    between atoms: _13  and  _15
REMARK    7  A    between atoms: _15  and  _16
REMARK    8  A    between atoms: _15  and  _18
REMARK    9  A    between atoms: _18  and  _19
REMARK   10  A    between atoms: _24  and  _25
REMARK   11  A    between atoms: _27  and  _29
REMARK   12  A    between atoms: _29  and  _30
REMARK   13  A    between atoms: _29  and  _32
REMARK   14  A    between atoms: _35  and  _37
REMARK   15  A    between atoms: _37  and  _38
REMARK   16  A    between atoms: _37  and  _40
REMARK   17  A    between atoms: _40  and  _41
REMARK   18  A    between atoms: _44  and  _46
REMARK   19  A    between atoms: _46  and  _47
REMARK   20  A    between atoms: _46  and  _49
REMARK   21  A    between atoms: _49  and  _50
REMARK   22  A    between atoms: _50  and  _51
REMARK   23  A    between atoms: _54  and  _56
REMARK   24  A    between atoms: _56  and  _57
REMARK   25  A    between atoms: _56  and  _59
REMARK   26  A    between atoms: _59  and  _60
REMARK   27  A    between atoms: _60  and  _61
REMARK   28  A    between atoms: _66  and  _68
REMARK   29  A    between atoms: _68  and  _69
REMARK   30  A    between atoms: _68  and  _71
REMARK   31  A    between atoms: _71  and  _72
REMARK   32  A    between atoms: _78  and  _80
REMARK   33  A    between atoms: _80  and  _81
REMARK   34  A    between atoms: _83  and  _85
REMARK   35  A    between atoms: _85  and  _86
REMARK   36  A    between atoms: _85  and  _88
REMARK   37  A    between atoms: _88  and  _89
REMARK   38  A    between atoms: _91  and  _93
REMARK   39  A    between atoms: _93  and  _94
REMARK   40  A    between atoms: _93  and  _96
REMARK   41  A    between atoms: _96  and  _97
REMARK   42  A    between atoms: _97  and  _98
REMARK   43  A    between atoms: _100  and  _102
REMARK   44  A    between atoms: _102  and  _103
REMARK   45  A    between atoms: _102  and  _105
REMARK   46  A    between atoms: _105  and  _106
REMARK   47  A    between atoms: _116  and  _118
REMARK   48  A    between atoms: _118  and  _119
REMARK   49  A    between atoms: _118  and  _121
REMARK   50  A    between atoms: _121  and  _122
REMARK   51  A    between atoms: _128  and  _129
REMARK   52  A    between atoms: _134  and  _136
REMARK   53  A    between atoms: _136  and  _137
REMARK   54  A    between atoms: _136  and  _139
REMARK   55  A    between atoms: _139  and  _140
REMARK   56  A    between atoms: _150  and  _152
REMARK   57  A    between atoms: _152  and  _153
REMARK   58  A    between atoms: _152  and  _155
REMARK   59  A    between atoms: _155  and  _156
REMARK   60  A    between atoms: _159  and  _161
REMARK   61  A    between atoms: _161  and  _162
REMARK   62  A    between atoms: _161  and  _164
REMARK   63  A    between atoms: _164  and  _165
REMARK   64  A    between atoms: _170  and  _171
REMARK   65  A    between atoms: _173  and  _175
REMARK   66  A    between atoms: _175  and  _176
REMARK   67  A    between atoms: _178  and  _180
REMARK   68  A    between atoms: _180  and  _181
REMARK   69  A    between atoms: _183  and  _185
REMARK   70  A    between atoms: _185  and  _186
REMARK   71  A    between atoms: _188  and  _190
REMARK   72  A    between atoms: _190  and  _191
REMARK   73  A    between atoms: _190  and  _193
REMARK   74  A    between atoms: _193  and  _194
REMARK   75  A    between atoms: _200  and  _202
REMARK   76  A    between atoms: _202  and  _203
REMARK   77  A    between atoms: _202  and  _205
REMARK   78  A    between atoms: _205  and  _206
REMARK   79  A    between atoms: _211  and  _212
REMARK   80  A    between atoms: _214  and  _216
REMARK   81  A    between atoms: _216  and  _217
REMARK   82  A    between atoms: _216  and  _219
REMARK   83  A    between atoms: _219  and  _220
REMARK   84  A    between atoms: _222  and  _224
REMARK   85  A    between atoms: _224  and  _225
REMARK   86  A    between atoms: _227  and  _229
REMARK   87  A    between atoms: _229  and  _230
REMARK   88  A    between atoms: _229  and  _232
REMARK   89  A    between atoms: _232  and  _233
REMARK   90  A    between atoms: _235  and  _237
REMARK   91  A    between atoms: _237  and  _238
REMARK   92  A    between atoms: _237  and  _240
REMARK   93  A    between atoms: _240  and  _241
REMARK   94  A    between atoms: _243  and  _245
REMARK   95  A    between atoms: _245  and  _246
REMARK   96  A    between atoms: _245  and  _248
REMARK   97  A    between atoms: _248  and  _249
REMARK   98  A    between atoms: _252  and  _254
REMARK   99  A    between atoms: _254  and  _255
REMARK  100  A    between atoms: _254  and  _257
REMARK  101  A    between atoms: _257  and  _258
REMARK  102  A    between atoms: _261  and  _263
REMARK  103  A    between atoms: _263  and  _264
REMARK  104  A    between atoms: _263  and  _266
REMARK  105  A    between atoms: _269  and  _271
REMARK  106  A    between atoms: _271  and  _272
REMARK  107  A    between atoms: _271  and  _274
REMARK  108  A    between atoms: _274  and  _275
REMARK  109  A    between atoms: _280  and  _281
REMARK  110  A    between atoms: _283  and  _285
REMARK  111  A    between atoms: _285  and  _286
REMARK  112  A    between atoms: _285  and  _288
REMARK  113  A    between atoms: _288  and  _289
REMARK  114  A    between atoms: _294  and  _295
REMARK  115  A    between atoms: _297  and  _299
REMARK  116  A    between atoms: _299  and  _300
REMARK  117  A    between atoms: _299  and  _302
REMARK  118  A    between atoms: _305  and  _307
REMARK  119  A    between atoms: _307  and  _308
REMARK  120  A    between atoms: _307  and  _310
REMARK  121  A    between atoms: _310  and  _311
REMARK  122  A    between atoms: _311  and  _312
REMARK  123  A    between atoms: _315  and  _317
REMARK  124  A    between atoms: _317  and  _318
REMARK  125  A    between atoms: _317  and  _320
REMARK  126  A    between atoms: _320  and  _321
REMARK  127  A    between atoms: _323  and  _325
REMARK  128  A    between atoms: _325  and  _326
REMARK  129  A    between atoms: _329  and  _331
REMARK  130  A    between atoms: _331  and  _332
REMARK  131  A    between atoms: _334  and  _336
REMARK  132  A    between atoms: _336  and  _337
REMARK  133  A    between atoms: _336  and  _339
REMARK  134  A    between atoms: _339  and  _340
REMARK  135  A    between atoms: _340  and  _341
REMARK  136  A    between atoms: _346  and  _348
REMARK  137  A    between atoms: _348  and  _349
REMARK  138  A    between atoms: _348  and  _351
REMARK  139  A    between atoms: _351  and  _352
REMARK  140  A    between atoms: _354  and  _356
REMARK  141  A    between atoms: _356  and  _357
REMARK  142  A    between atoms: _356  and  _359
REMARK  143  A    between atoms: _359  and  _360
REMARK  144  A    between atoms: _360  and  _361
REMARK  145  A    between atoms: _364  and  _366
REMARK  146  A    between atoms: _366  and  _367
REMARK  147  A    between atoms: _366  and  _369
REMARK  148  A    between atoms: _369  and  _370
REMARK  149  A    between atoms: _380  and  _382
REMARK  150  A    between atoms: _382  and  _383
REMARK  151  A    between atoms: _382  and  _385
REMARK  152  A    between atoms: _385  and  _386
REMARK  153  A    between atoms: _391  and  _393
REMARK  154  A    between atoms: _393  and  _394
REMARK  155  A    between atoms: _393  and  _396
REMARK  156  A    between atoms: _396  and  _397
REMARK  157  A    between atoms: _400  and  _402
REMARK  158  A    between atoms: _402  and  _403
REMARK  159  A    between atoms: _402  and  _405
REMARK  160  A    between atoms: _405  and  _406
REMARK  161  A    between atoms: _412  and  _414
REMARK  162  A    between atoms: _414  and  _415
REMARK  163  A    between atoms: _414  and  _417
REMARK  164  A    between atoms: _417  and  _418
REMARK  165  A    between atoms: _421  and  _423
REMARK  166  A    between atoms: _423  and  _424
REMARK  167  A    between atoms: _423  and  _426
REMARK  168  A    between atoms: _426  and  _427
REMARK  169  A    between atoms: _429  and  _431
REMARK  170  A    between atoms: _431  and  _432
REMARK  171  A    between atoms: _431  and  _434
REMARK  172  A    between atoms: _434  and  _435
REMARK  173  A    between atoms: _438  and  _440
REMARK  174  A    between atoms: _440  and  _441
REMARK  175  A    between atoms: _440  and  _443
REMARK  176  A    between atoms: _443  and  _444
REMARK  177  A    between atoms: _450  and  _452
REMARK  178  A    between atoms: _452  and  _453
REMARK  179  A    between atoms: _452  and  _455
REMARK  180  A    between atoms: _455  and  _456
REMARK  181  A    between atoms: _456  and  _457
REMARK  182  A    between atoms: _457  and  _458
REMARK  183  A    between atoms: _467  and  _469
REMARK  184  A    between atoms: _469  and  _470
REMARK  185  A    between atoms: _469  and  _472
REMARK  186  A    between atoms: _472  and  _473
REMARK  187  A    between atoms: _479  and  _481
REMARK  188  A    between atoms: _481  and  _482
REMARK  189  A    between atoms: _481  and  _484
REMARK  190  A    between atoms: _484  and  _485
REMARK  191  A    between atoms: _487  and  _489
REMARK  192  A    between atoms: _489  and  _490
REMARK  193  A    between atoms: _489  and  _492
REMARK  194  A    between atoms: _492  and  _493
REMARK  195  A    between atoms: _498  and  _500
REMARK  196  A    between atoms: _500  and  _501
REMARK  197  A    between atoms: _500  and  _503
REMARK  198  A    between atoms: _503  and  _504
REMARK  199  A    between atoms: _504  and  _505
REMARK  200  A    between atoms: _508  and  _510
REMARK  201  A    between atoms: _510  and  _511
REMARK  202  A    between atoms: _513  and  _515
REMARK  203  A    between atoms: _515  and  _516
REMARK  204  A    between atoms: _515  and  _518
REMARK  205  A    between atoms: _518  and  _519
REMARK  206  A    between atoms: _521  and  _523
REMARK  207  A    between atoms: _523  and  _524
REMARK  208  A    between atoms: _523  and  _526
REMARK  209  A    between atoms: _526  and  _527
REMARK  210  A    between atoms: _533  and  _535
REMARK  211  A    between atoms: _535  and  _536
REMARK  212  A    between atoms: _535  and  _538
REMARK  213  A    between atoms: _538  and  _539
REMARK  214  A    between atoms: _545  and  _547
REMARK  215  A    between atoms: _547  and  _548
REMARK  216  A    between atoms: _547  and  _550
REMARK  217  A    between atoms: _550  and  _551
REMARK  218  A    between atoms: _554  and  _556
REMARK  219  A    between atoms: _556  and  _557
REMARK  220  A    between atoms: _556  and  _559
REMARK  221  A    between atoms: _559  and  _560
REMARK  222  A    between atoms: _563  and  _565
REMARK  223  A    between atoms: _565  and  _566
REMARK  224  A    between atoms: _565  and  _568
REMARK  225  A    between atoms: _568  and  _569
REMARK  226  A    between atoms: _574  and  _575
REMARK  227  A    between atoms: _577  and  _579
REMARK  228  A    between atoms: _579  and  _580
REMARK  229  A    between atoms: _582  and  _584
REMARK  230  A    between atoms: _584  and  _585
REMARK  231  A    between atoms: _588  and  _590
REMARK  232  A    between atoms: _590  and  _591
REMARK  233  A    between atoms: _590  and  _593
REMARK  234  A    between atoms: _593  and  _594
REMARK  235  A    between atoms: _597  and  _599
REMARK  236  A    between atoms: _599  and  _600
REMARK  237  A    between atoms: _599  and  _602
REMARK  238  A    between atoms: _602  and  _603
REMARK  239  A    between atoms: _605  and  _607
REMARK  240  A    between atoms: _607  and  _608
REMARK  241  A    between atoms: _607  and  _610
REMARK  242  A    between atoms: _613  and  _615
REMARK  243  A    between atoms: _615  and  _616
REMARK  244  A    between atoms: _615  and  _618
REMARK  245  A    between atoms: _618  and  _619
REMARK  246  A    between atoms: _624  and  _626
REMARK  247  A    between atoms: _626  and  _627
REMARK  248  A    between atoms: _626  and  _629
REMARK  249  A    between atoms: _629  and  _630
REMARK  250  A    between atoms: _640  and  _642
REMARK  251  A    between atoms: _642  and  _643
REMARK  252  A    between atoms: _642  and  _645
REMARK  253  A    between atoms: _645  and  _646
REMARK  254  A    between atoms: _646  and  _647
REMARK  255  A    between atoms: _649  and  _651
REMARK  256  A    between atoms: _651  and  _652
REMARK  257  A    between atoms: _651  and  _654
REMARK  258  A    between atoms: _654  and  _655
REMARK  259  A    between atoms: _658  and  _660
REMARK  260  A    between atoms: _660  and  _661
REMARK  261  A    between atoms: _660  and  _663
REMARK  262  A    between atoms: _663  and  _664
REMARK  263  A    between atoms: _669  and  _671
REMARK  264  A    between atoms: _671  and  _672
REMARK  265  A    between atoms: _674  and  _676
REMARK  266  A    between atoms: _676  and  _677
REMARK  267  A    between atoms: _676  and  _679
REMARK  268  A    between atoms: _679  and  _680
REMARK  269  A    between atoms: _685  and  _686
REMARK  270  A    between atoms: _688  and  _690
REMARK  271  A    between atoms: _690  and  _691
REMARK  272  A    between atoms: _690  and  _693
REMARK  273  A    between atoms: _693  and  _694
REMARK  274  A    between atoms: _694  and  _695
REMARK  275  A    between atoms: _698  and  _700
REMARK  276  A    between atoms: _700  and  _701
REMARK  277  A    between atoms: _700  and  _703
REMARK  278  A    between atoms: _703  and  _704
REMARK                            x       y       z     vdW  Elec       q    Type
REMARK                         _______ _______ _______ _____ _____    ______ ____
ROOT
ATOM      1  O   HOH     1       7.776  75.736  61.137  0.00  0.00    +0.000 OA
ENDROOT
TORSDOF 0
REMARK  Name = ../refined-set-2016/1h23/1h23_pocket.pdb
REMARK  278 active torsions:
REMARK  status: ('A' for Active; 'I' for Inactive)
REMARK    1  A    between atoms: _1  and  _3
REMARK    2  A    between atoms: _3  and  _4
REMARK    3  A    between atoms: _3  and  _6
REMARK    4  A    between atoms: _6  and  _7
REMARK    5  A    between atoms: _7  and  _8
REMARK    6  A    between atoms: _13  and  _15
REMARK    7  A    between atoms: _15  and  _16
REMARK    8  A    between atoms: _15  and  _18
REMARK    9  A    between atoms: _18  and  _19
REMARK   10  A    between atoms: _24  and  _25
REMARK   11  A    between atoms: _27  and  _29
REMARK   12  A    between atoms: _29  and  _30
REMARK   13  A    between atoms: _29  and  _32
REMARK   14  A    between atoms: _35  and  _37
REMARK   15  A    between atoms: _37  and  _38
REMARK   16  A    between atoms: _37  and  _40
REMARK   17  A    between atoms: _40  and  _41
REMARK   18  A    between atoms: _44  and  _46
REMARK   19  A    between atoms: _46  and  _47
REMARK   20  A    between atoms: _46  and  _49
REMARK   21  A    between atoms: _49  and  _50
REMARK   22  A    between atoms: _50  and  _51
REMARK   23  A    between atoms: _54  and  _56
REMARK   24  A    between atoms: _56  and  _57
REMARK   25  A    between atoms: _56  and  _59
REMARK   26  A    between atoms: _59  and  _60
REMARK   27  A    between atoms: _60  and  _61
REMARK   28  A    between atoms: _66  and  _68
REMARK   29  A    between atoms: _68  and  _69
REMARK   30  A    between atoms: _68  and  _71
REMARK   31  A    between atoms: _71  and  _72
REMARK   32  A    between atoms: _78  and  _80
REMARK   33  A    between atoms: _80  and  _81
REMARK   34  A    between atoms: _83  and  _85
REMARK   35  A    between atoms: _85  and  _86
REMARK   36  A    between atoms: _85  and  _88
REMARK   37  A    between atoms: _88  and  _89
REMARK   38  A    between atoms: _91  and  _93
REMARK   39  A    between atoms: _93  and  _94
REMARK   40  A    between atoms: _93  and  _96
REMARK   41  A    between atoms: _96  and  _97
REMARK   42  A    between atoms: _97  and  _98
REMARK   43  A    between atoms: _100  and  _102
REMARK   44  A    between atoms: _102  and  _103
REMARK   45  A    between atoms: _102  and  _105
REMARK   46  A    between atoms: _105  and  _106
REMARK   47  A    between atoms: _116  and  _118
REMARK   48  A    between atoms: _118  and  _119
REMARK   49  A    between atoms: _118  and  _121
REMARK   50  A    between atoms: _121  and  _122
REMARK   51  A    between atoms: _128  and  _129
REMARK   52  A    between atoms: _134  and  _136
REMARK   53  A    between atoms: _136  and  _137
REMARK   54  A    between atoms: _136  and  _139
REMARK   55  A    between atoms: _139  and  _140
REMARK   56  A    between atoms: _150  and  _152
REMARK   57  A    between atoms: _152  and  _153
REMARK   58  A    between atoms: _152  and  _155
REMARK   59  A    between atoms: _155  and  _156
REMARK   60  A    between atoms: _159  and  _161
REMARK   61  A    between atoms: _161  and  _162
REMARK   62  A    between atoms: _161  and  _164
REMARK   63  A    between atoms: _164  and  _165
REMARK   64  A    between atoms: _170  and  _171
REMARK   65  A    between atoms: _173  and  _175
REMARK   66  A    between atoms: _175  and  _176
REMARK   67  A    between atoms: _178  and  _180
REMARK   68  A    between atoms: _180  and  _181
REMARK   69  A    between atoms: _183  and  _185
REMARK   70  A    between atoms: _185  and  _186
REMARK   71  A    between atoms: _188  and  _190
REMARK   72  A    between atoms: _190  and  _191
REMARK   73  A    between atoms: _190  and  _193
REMARK   74  A    between atoms: _193  and  _194
REMARK   75  A    between atoms: _200  and  _202
REMARK   76  A    between atoms: _202  and  _203
REMARK   77  A    between atoms: _202  and  _205
REMARK   78  A    between atoms: _205  and  _206
REMARK   79  A    between atoms: _211  and  _212
REMARK   80  A    between atoms: _214  and  _216
REMARK   81  A    between atoms: _216  and  _217
REMARK   82  A    between atoms: _216  and  _219
REMARK   83  A    between atoms: _219  and  _220
REMARK   84  A    between atoms: _222  and  _224
REMARK   85  A    between atoms: _224  and  _225
REMARK   86  A    between atoms: _227  and  _229
REMARK   87  A    between atoms: _229  and  _230
REMARK   88  A    between atoms: _229  and  _232
REMARK   89  A    between atoms: _232  and  _233
REMARK   90  A    between atoms: _235  and  _237
REMARK   91  A    between atoms: _237  and  _238
REMARK   92  A    between atoms: _237  and  _240
REMARK   93  A    between atoms: _240  and  _241
REMARK   94  A    between atoms: _243  and  _245
REMARK   95  A    between atoms: _245  and  _246
REMARK   96  A    between atoms: _245  and  _248
REMARK   97  A    between atoms: _248  and  _249
REMARK   98  A    between atoms: _252  and  _254
REMARK   99  A    between atoms: _254  and  _255
REMARK  100  A    between atoms: _254  and  _257
REMARK  101  A    between atoms: _257  and  _258
REMARK  102  A    between atoms: _261  and  _263
REMARK  103  A    between atoms: _263  and  _264
REMARK  104  A    between atoms: _263  and  _266
REMARK  105  A    between atoms: _269  and  _271
REMARK  106  A    between atoms: _271  and  _272
REMARK  107  A    between atoms: _271  and  _274
REMARK  108  A    between atoms: _274  and  _275
REMARK  109  A    between atoms: _280  and  _281
REMARK  110  A    between atoms: _283  and  _285
REMARK  111  A    between atoms: _285  and  _286
REMARK  112  A    between atoms: _285  and  _288
REMARK  113  A    between atoms: _288  and  _289
REMARK  114  A    between atoms: _294  and  _295
REMARK  115  A    between atoms: _297  and  _299
REMARK  116  A    between atoms: _299  and  _300
REMARK  117  A    between atoms: _299  and  _302
REMARK  118  A    between atoms: _305  and  _307
REMARK  119  A    between atoms: _307  and  _308
REMARK  120  A    between atoms: _307  and  _310
REMARK  121  A    between atoms: _310  and  _311
REMARK  122  A    between atoms: _311  and  _312
REMARK  123  A    between atoms: _315  and  _317
REMARK  124  A    between atoms: _317  and  _318
REMARK  125  A    between atoms: _317  and  _320
REMARK  126  A    between atoms: _320  and  _321
REMARK  127  A    between atoms: _323  and  _325
REMARK  128  A    between atoms: _325  and  _326
REMARK  129  A    between atoms: _329  and  _331
REMARK  130  A    between atoms: _331  and  _332
REMARK  131  A    between atoms: _334  and  _336
REMARK  132  A    between atoms: _336  and  _337
REMARK  133  A    between atoms: _336  and  _339
REMARK  134  A    between atoms: _339  and  _340
REMARK  135  A    between atoms: _340  and  _341
REMARK  136  A    between atoms: _346  and  _348
REMARK  137  A    between atoms: _348  and  _349
REMARK  138  A    between atoms: _348  and  _351
REMARK  139  A    between atoms: _351  and  _352
REMARK  140  A    between atoms: _354  and  _356
REMARK  141  A    between atoms: _356  and  _357
REMARK  142  A    between atoms: _356  and  _359
REMARK  143  A    between atoms: _359  and  _360
REMARK  144  A    between atoms: _360  and  _361
REMARK  145  A    between atoms: _364  and  _366
REMARK  146  A    between atoms: _366  and  _367
REMARK  147  A    between atoms: _366  and  _369
REMARK  148  A    between atoms: _369  and  _370
REMARK  149  A    between atoms: _380  and  _382
REMARK  150  A    between atoms: _382  and  _383
REMARK  151  A    between atoms: _382  and  _385
REMARK  152  A    between atoms: _385  and  _386
REMARK  153  A    between atoms: _391  and  _393
REMARK  154  A    between atoms: _393  and  _394
REMARK  155  A    between atoms: _393  and  _396
REMARK  156  A    between atoms: _396  and  _397
REMARK  157  A    between atoms: _400  and  _402
REMARK  158  A    between atoms: _402  and  _403
REMARK  159  A    between atoms: _402  and  _405
REMARK  160  A    between atoms: _405  and  _406
REMARK  161  A    between atoms: _412  and  _414
REMARK  162  A    between atoms: _414  and  _415
REMARK  163  A    between atoms: _414  and  _417
REMARK  164  A    between atoms: _417  and  _418
REMARK  165  A    between atoms: _421  and  _423
REMARK  166  A    between atoms: _423  and  _424
REMARK  167  A    between atoms: _423  and  _426
REMARK  168  A    between atoms: _426  and  _427
REMARK  169  A    between atoms: _429  and  _431
REMARK  170  A    between atoms: _431  and  _432
REMARK  171  A    between atoms: _431  and  _434
REMARK  172  A    between atoms: _434  and  _435
REMARK  173  A    between atoms: _438  and  _440
REMARK  174  A    between atoms: _440  and  _441
REMARK  175  A    between atoms: _440  and  _443
REMARK  176  A    between atoms: _443  and  _444
REMARK  177  A    between atoms: _450  and  _452
REMARK  178  A    between atoms: _452  and  _453
REMARK  179  A    between atoms: _452  and  _455
REMARK  180  A    between atoms: _455  and  _456
REMARK  181  A    between atoms: _456  and  _457
REMARK  182  A    between atoms: _457  and  _458
REMARK  183  A    between atoms: _467  and  _469
REMARK  184  A    between atoms: _469  and  _470
REMARK  185  A    between atoms: _469  and  _472
REMARK  186  A    between atoms: _472  and  _473
REMARK  187  A    between atoms: _479  and  _481
REMARK  188  A    between atoms: _481  and  _482
REMARK  189  A    between atoms: _481  and  _484
REMARK  190  A    between atoms: _484  and  _485
REMARK  191  A    between atoms: _487  and  _489
REMARK  192  A    between atoms: _489  and  _490
REMARK  193  A    between atoms: _489  and  _492
REMARK  194  A    between atoms: _492  and  _493
REMARK  195  A    between atoms: _498  and  _500
REMARK  196  A    between atoms: _500  and  _501
REMARK  197  A    between atoms: _500  and  _503
REMARK  198  A    between atoms: _503  and  _504
REMARK  199  A    between atoms: _504  and  _505
REMARK  200  A    between atoms: _508  and  _510
REMARK  201  A    between atoms: _510  and  _511
REMARK  202  A    between atoms: _513  and  _515
REMARK  203  A    between atoms: _515  and  _516
REMARK  204  A    between atoms: _515  and  _518
REMARK  205  A    between atoms: _518  and  _519
REMARK  206  A    between atoms: _521  and  _523
REMARK  207  A    between atoms: _523  and  _524
REMARK  208  A    between atoms: _523  and  _526
REMARK  209  A    between atoms: _526  and  _527
REMARK  210  A    between atoms: _533  and  _535
REMARK  211  A    between atoms: _535  and  _536
REMARK  212  A    between atoms: _535  and  _538
REMARK  213  A    between atoms: _538  and  _539
REMARK  214  A    between atoms: _545  and  _547
REMARK  215  A    between atoms: _547  and  _548
REMARK  216  A    between atoms: _547  and  _550
REMARK  217  A    between atoms: _550  and  _551
REMARK  218  A    between atoms: _554  and  _556
REMARK  219  A    between atoms: _556  and  _557
REMARK  220  A    between atoms: _556  and  _559
REMARK  221  A    between atoms: _559  and  _560
REMARK  222  A    between atoms: _563  and  _565
REMARK  223  A    between atoms: _565  and  _566
REMARK  224  A    between atoms: _565  and  _568
REMARK  225  A    between atoms: _568  and  _569
REMARK  226  A    between atoms: _574  and  _575
REMARK  227  A    between atoms: _577  and  _579
REMARK  228  A    between atoms: _579  and  _580
REMARK  229  A    between atoms: _582  and  _584
REMARK  230  A    between atoms: _584  and  _585
REMARK  231  A    between atoms: _588  and  _590
REMARK  232  A    between atoms: _590  and  _591
REMARK  233  A    between atoms: _590  and  _593
REMARK  234  A    between atoms: _593  and  _594
REMARK  235  A    between atoms: _597  and  _599
REMARK  236  A    between atoms: _599  and  _600
REMARK  237  A    between atoms: _599  and  _602
REMARK  238  A    between atoms: _602  and  _603
REMARK  239  A    between atoms: _605  and  _607
REMARK  240  A    between atoms: _607  and  _608
REMARK  241  A    between atoms: _607  and  _610
REMARK  242  A    between atoms: _613  and  _615
REMARK  243  A    between atoms: _615  and  _616
REMARK  244  A    between atoms: _615  and  _618
REMARK  245  A    between atoms: _618  and  _619
REMARK  246  A    between atoms: _624  and  _626
REMARK  247  A    between atoms: _626  and  _627
REMARK  248  A    between atoms: _626  and  _629
REMARK  249  A    between atoms: _629  and  _630
REMARK  250  A    between atoms: _640  and  _642
REMARK  251  A    between atoms: _642  and  _643
REMARK  252  A    between atoms: _642  and  _645
REMARK  253  A    between atoms: _645  and  _646
REMARK  254  A    between atoms: _646  and  _647
REMARK  255  A    between atoms: _649  and  _651
REMARK  256  A    between atoms: _651  and  _652
REMARK  257  A    between atoms: _651  and  _654
REMARK  258  A    between atoms: _654  and  _655
REMARK  259  A    between atoms: _658  and  _660
REMARK  260  A    between atoms: _660  and  _661
REMARK  261  A    between atoms: _660  and  _663
REMARK  262  A    between atoms: _663  and  _664
REMARK  263  A    between atoms: _669  and  _671
REMARK  264  A    between atoms: _671  and  _672
REMARK  265  A    between atoms: _674  and  _676
REMARK  266  A    between atoms: _676  and  _677
REMARK  267  A    between atoms: _676  and  _679
REMARK  268  A    between atoms: _679  and  _680
REMARK  269  A    between atoms: _685  and  _686
REMARK  270  A    between atoms: _688  and  _690
REMARK  271  A    between atoms: _690  and  _691
REMARK  272  A    between atoms: _690  and  _693
REMARK  273  A    between atoms: _693  and  _694
REMARK  274  A    between atoms: _694  and  _695
REMARK  275  A    between atoms: _698  and  _700
REMARK  276  A    between atoms: _700  and  _701
REMARK  277  A    between atoms: _700  and  _703
REMARK  278  A    between atoms: _703  and  _704
REMARK                            x       y       z     vdW  Elec       q    Type
REMARK                         _______ _______ _______ _____ _____    ______ ____
ROOT
ATOM      1  O   HOH     1       3.665  68.453  58.554  0.00  0.00    +0.000 OA
ENDROOT
TORSDOF 0
REMARK  Name = ../refined-set-2016/1h23/1h23_pocket.pdb
REMARK  278 active torsions:
REMARK  status: ('A' for Active; 'I' for Inactive)
REMARK    1  A    between atoms: _1  and  _3
REMARK    2  A    between atoms: _3  and  _4
REMARK    3  A    between atoms: _3  and  _6
REMARK    4  A    between atoms: _6  and  _7
REMARK    5  A    between atoms: _7  and  _8
REMARK    6  A    between atoms: _13  and  _15
REMARK    7  A    between atoms: _15  and  _16
REMARK    8  A    between atoms: _15  and  _18
REMARK    9  A    between atoms: _18  and  _19
REMARK   10  A    between atoms: _24  and  _25
REMARK   11  A    between atoms: _27  and  _29
REMARK   12  A    between atoms: _29  and  _30
REMARK   13  A    between atoms: _29  and  _32
REMARK   14  A    between atoms: _35  and  _37
REMARK   15  A    between atoms: _37  and  _38
REMARK   16  A    between atoms: _37  and  _40
REMARK   17  A    between atoms: _40  and  _41
REMARK   18  A    between atoms: _44  and  _46
REMARK   19  A    between atoms: _46  and  _47
REMARK   20  A    between atoms: _46  and  _49
REMARK   21  A    between atoms: _49  and  _50
REMARK   22  A    between atoms: _50  and  _51
REMARK   23  A    between atoms: _54  and  _56
REMARK   24  A    between atoms: _56  and  _57
REMARK   25  A    between atoms: _56  and  _59
REMARK   26  A    between atoms: _59  and  _60
REMARK   27  A    between atoms: _60  and  _61
REMARK   28  A    between atoms: _66  and  _68
REMARK   29  A    between atoms: _68  and  _69
REMARK   30  A    between atoms: _68  and  _71
REMARK   31  A    between atoms: _71  and  _72
REMARK   32  A    between atoms: _78  and  _80
REMARK   33  A    between atoms: _80  and  _81
REMARK   34  A    between atoms: _83  and  _85
REMARK   35  A    between atoms: _85  and  _86
REMARK   36  A    between atoms: _85  and  _88
REMARK   37  A    between atoms: _88  and  _89
REMARK   38  A    between atoms: _91  and  _93
REMARK   39  A    between atoms: _93  and  _94
REMARK   40  A    between atoms: _93  and  _96
REMARK   41  A    between atoms: _96  and  _97
REMARK   42  A    between atoms: _97  and  _98
REMARK   43  A    between atoms: _100  and  _102
REMARK   44  A    between atoms: _102  and  _103
REMARK   45  A    between atoms: _102  and  _105
REMARK   46  A    between atoms: _105  and  _106
REMARK   47  A    between atoms: _116  and  _118
REMARK   48  A    between atoms: _118  and  _119
REMARK   49  A    between atoms: _118  and  _121
REMARK   50  A    between atoms: _121  and  _122
REMARK   51  A    between atoms: _128  and  _129
REMARK   52  A    between atoms: _134  and  _136
REMARK   53  A    between atoms: _136  and  _137
REMARK   54  A    between atoms: _136  and  _139
REMARK   55  A    between atoms: _139  and  _140
REMARK   56  A    between atoms: _150  and  _152
REMARK   57  A    between atoms: _152  and  _153
REMARK   58  A    between atoms: _152  and  _155
REMARK   59  A    between atoms: _155  and  _156
REMARK   60  A    between atoms: _159  and  _161
REMARK   61  A    between atoms: _161  and  _162
REMARK   62  A    between atoms: _161  and  _164
REMARK   63  A    between atoms: _164  and  _165
REMARK   64  A    between atoms: _170  and  _171
REMARK   65  A    between atoms: _173  and  _175
REMARK   66  A    between atoms: _175  and  _176
REMARK   67  A    between atoms: _178  and  _180
REMARK   68  A    between atoms: _180  and  _181
REMARK   69  A    between atoms: _183  and  _185
REMARK   70  A    between atoms: _185  and  _186
REMARK   71  A    between atoms: _188  and  _190
REMARK   72  A    between atoms: _190  and  _191
REMARK   73  A    between atoms: _190  and  _193
REMARK   74  A    between atoms: _193  and  _194
REMARK   75  A    between atoms: _200  and  _202
REMARK   76  A    between atoms: _202  and  _203
REMARK   77  A    between atoms: _202  and  _205
REMARK   78  A    between atoms: _205  and  _206
REMARK   79  A    between atoms: _211  and  _212
REMARK   80  A    between atoms: _214  and  _216
REMARK   81  A    between atoms: _216  and  _217
REMARK   82  A    between atoms: _216  and  _219
REMARK   83  A    between atoms: _219  and  _220
REMARK   84  A    between atoms: _222  and  _224
REMARK   85  A    between atoms: _224  and  _225
REMARK   86  A    between atoms: _227  and  _229
REMARK   87  A    between atoms: _229  and  _230
REMARK   88  A    between atoms: _229  and  _232
REMARK   89  A    between atoms: _232  and  _233
REMARK   90  A    between atoms: _235  and  _237
REMARK   91  A    between atoms: _237  and  _238
REMARK   92  A    between atoms: _237  and  _240
REMARK   93  A    between atoms: _240  and  _241
REMARK   94  A    between atoms: _243  and  _245
REMARK   95  A    between atoms: _245  and  _246
REMARK   96  A    between atoms: _245  and  _248
REMARK   97  A    between atoms: _248  and  _249
REMARK   98  A    between atoms: _252  and  _254
REMARK   99  A    between atoms: _254  and  _255
REMARK  100  A    between atoms: _254  and  _257
REMARK  101  A    between atoms: _257  and  _258
REMARK  102  A    between atoms: _261  and  _263
REMARK  103  A    between atoms: _263  and  _264
REMARK  104  A    between atoms: _263  and  _266
REMARK  105  A    between atoms: _269  and  _271
REMARK  106  A    between atoms: _271  and  _272
REMARK  107  A    between atoms: _271  and  _274
REMARK  108  A    between atoms: _274  and  _275
REMARK  109  A    between atoms: _280  and  _281
REMARK  110  A    between atoms: _283  and  _285
REMARK  111  A    between atoms: _285  and  _286
REMARK  112  A    between atoms: _285  and  _288
REMARK  113  A    between atoms: _288  and  _289
REMARK  114  A    between atoms: _294  and  _295
REMARK  115  A    between atoms: _297  and  _299
REMARK  116  A    between atoms: _299  and  _300
REMARK  117  A    between atoms: _299  and  _302
REMARK  118  A    between atoms: _305  and  _307
REMARK  119  A    between atoms: _307  and  _308
REMARK  120  A    between atoms: _307  and  _310
REMARK  121  A    between atoms: _310  and  _311
REMARK  122  A    between atoms: _311  and  _312
REMARK  123  A    between atoms: _315  and  _317
REMARK  124  A    between atoms: _317  and  _318
REMARK  125  A    between atoms: _317  and  _320
REMARK  126  A    between atoms: _320  and  _321
REMARK  127  A    between atoms: _323  and  _325
REMARK  128  A    between atoms: _325  and  _326
REMARK  129  A    between atoms: _329  and  _331
REMARK  130  A    between atoms: _331  and  _332
REMARK  131  A    between atoms: _334  and  _336
REMARK  132  A    between atoms: _336  and  _337
REMARK  133  A    between atoms: _336  and  _339
REMARK  134  A    between atoms: _339  and  _340
REMARK  135  A    between atoms: _340  and  _341
REMARK  136  A    between atoms: _346  and  _348
REMARK  137  A    between atoms: _348  and  _349
REMARK  138  A    between atoms: _348  and  _351
REMARK  139  A    between atoms: _351  and  _352
REMARK  140  A    between atoms: _354  and  _356
REMARK  141  A    between atoms: _356  and  _357
REMARK  142  A    between atoms: _356  and  _359
REMARK  143  A    between atoms: _359  and  _360
REMARK  144  A    between atoms: _360  and  _361
REMARK  145  A    between atoms: _364  and  _366
REMARK  146  A    between atoms: _366  and  _367
REMARK  147  A    between atoms: _366  and  _369
REMARK  148  A    between atoms: _369  and  _370
REMARK  149  A    between atoms: _380  and  _382
REMARK  150  A    between atoms: _382  and  _383
REMARK  151  A    between atoms: _382  and  _385
REMARK  152  A    between atoms: _385  and  _386
REMARK  153  A    between atoms: _391  and  _393
REMARK  154  A    between atoms: _393  and  _394
REMARK  155  A    between atoms: _393  and  _396
REMARK  156  A    between atoms: _396  and  _397
REMARK  157  A    between atoms: _400  and  _402
REMARK  158  A    between atoms: _402  and  _403
REMARK  159  A    between atoms: _402  and  _405
REMARK  160  A    between atoms: _405  and  _406
REMARK  161  A    between atoms: _412  and  _414
REMARK  162  A    between atoms: _414  and  _415
REMARK  163  A    between atoms: _414  and  _417
REMARK  164  A    between atoms: _417  and  _418
REMARK  165  A    between atoms: _421  and  _423
REMARK  166  A    between atoms: _423  and  _424
REMARK  167  A    between atoms: _423  and  _426
REMARK  168  A    between atoms: _426  and  _427
REMARK  169  A    between atoms: _429  and  _431
REMARK  170  A    between atoms: _431  and  _432
REMARK  171  A    between atoms: _431  and  _434
REMARK  172  A    between atoms: _434  and  _435
REMARK  173  A    between atoms: _438  and  _440
REMARK  174  A    between atoms: _440  and  _441
REMARK  175  A    between atoms: _440  and  _443
REMARK  176  A    between atoms: _443  and  _444
REMARK  177  A    between atoms: _450  and  _452
REMARK  178  A    between atoms: _452  and  _453
REMARK  179  A    between atoms: _452  and  _455
REMARK  180  A    between atoms: _455  and  _456
REMARK  181  A    between atoms: _456  and  _457
REMARK  182  A    between atoms: _457  and  _458
REMARK  183  A    between atoms: _467  and  _469
REMARK  184  A    between atoms: _469  and  _470
REMARK  185  A    between atoms: _469  and  _472
REMARK  186  A    between atoms: _472  and  _473
REMARK  187  A    between atoms: _479  and  _481
REMARK  188  A    between atoms: _481  and  _482
REMARK  189  A    between atoms: _481  and  _484
REMARK  190  A    between atoms: _484  and  _485
REMARK  191  A    between atoms: _487  and  _489
REMARK  192  A    between atoms: _489  and  _490
REMARK  193  A    between atoms: _489  and  _492
REMARK  194  A    between atoms: _492  and  _493
REMARK  195  A    between atoms: _498  and  _500
REMARK  196  A    between atoms: _500  and  _501
REMARK  197  A    between atoms: _500  and  _503
REMARK  198  A    between atoms: _503  and  _504
REMARK  199  A    between atoms: _504  and  _505
REMARK  200  A    between atoms: _508  and  _510
REMARK  201  A    between atoms: _510  and  _511
REMARK  202  A    between atoms: _513  and  _515
REMARK  203  A    between atoms: _515  and  _516
REMARK  204  A    between atoms: _515  and  _518
REMARK  205  A    between atoms: _518  and  _519
REMARK  206  A    between atoms: _521  and  _523
REMARK  207  A    between atoms: _523  and  _524
REMARK  208  A    between atoms: _523  and  _526
REMARK  209  A    between atoms: _526  and  _527
REMARK  210  A    between atoms: _533  and  _535
REMARK  211  A    between atoms: _535  and  _536
REMARK  212  A    between atoms: _535  and  _538
REMARK  213  A    between atoms: _538  and  _539
REMARK  214  A    between atoms: _545  and  _547
REMARK  215  A    between atoms: _547  and  _548
REMARK  216  A    between atoms: _547  and  _550
REMARK  217  A    between atoms: _550  and  _551
REMARK  218  A    between atoms: _554  and  _556
REMARK  219  A    between atoms: _556  and  _557
REMARK  220  A    between atoms: _556  and  _559
REMARK  221  A    between atoms: _559  and  _560
REMARK  222  A    between atoms: _563  and  _565
REMARK  223  A    between atoms: _565  and  _566
REMARK  224  A    between atoms: _565  and  _568
REMARK  225  A    between atoms: _568  and  _569
REMARK  226  A    between atoms: _574  and  _575
REMARK  227  A    between atoms: _577  and  _579
REMARK  228  A    between atoms: _579  and  _580
REMARK  229  A    between atoms: _582  and  _584
REMARK  230  A    between atoms: _584  and  _585
REMARK  231  A    between atoms: _588  and  _590
REMARK  232  A    between atoms: _590  and  _591
REMARK  233  A    between atoms: _590  and  _593
REMARK  234  A    between atoms: _593  and  _594
REMARK  235  A    between atoms: _597  and  _599
REMARK  236  A    between atoms: _599  and  _600
REMARK  237  A    between atoms: _599  and  _602
REMARK  238  A    between atoms: _602  and  _603
REMARK  239  A    between atoms: _605  and  _607
REMARK  240  A    between atoms: _607  and  _608
REMARK  241  A    between atoms: _607  and  _610
REMARK  242  A    between atoms: _613  and  _615
REMARK  243  A    between atoms: _615  and  _616
REMARK  244  A    between atoms: _615  and  _618
REMARK  245  A    between atoms: _618  and  _619
REMARK  246  A    between atoms: _624  and  _626
REMARK  247  A    between atoms: _626  and  _627
REMARK  248  A    between atoms: _626  and  _629
REMARK  249  A    between atoms: _629  and  _630
REMARK  250  A    between atoms: _640  and  _642
REMARK  251  A    between atoms: _642  and  _643
REMARK  252  A    between atoms: _642  and  _645
REMARK  253  A    between atoms: _645  and  _646
REMARK  254  A    between atoms: _646  and  _647
REMARK  255  A    between atoms: _649  and  _651
REMARK  256  A    between atoms: _651  and  _652
REMARK  257  A    between atoms: _651  and  _654
REMARK  258  A    between atoms: _654  and  _655
REMARK  259  A    between atoms: _658  and  _660
REMARK  260  A    between atoms: _660  and  _661
REMARK  261  A    between atoms: _660  and  _663
REMARK  262  A    between atoms: _663  and  _664
REMARK  263  A    between atoms: _669  and  _671
REMARK  264  A    between atoms: _671  and  _672
REMARK  265  A    between atoms: _674  and  _676
REMARK  266  A    between atoms: _676  and  _677
REMARK  267  A    between atoms: _676  and  _679
REMARK  268  A    between atoms: _679  and  _680
REMARK  269  A    between atoms: _685  and  _686
REMARK  270  A    between atoms: _688  and  _690
REMARK  271  A    between atoms: _690  and  _691
REMARK  272  A    between atoms: _690  and  _693
REMARK  273  A    between atoms: _693  and  _694
REMARK  274  A    between atoms: _694  and  _695
REMARK  275  A    between atoms: _698  and  _700
REMARK  276  A    between atoms: _700  and  _701
REMARK  277  A    between atoms: _700  and  _703
REMARK  278  A    between atoms: _703  and  _704
REMARK                            x       y       z     vdW  Elec       q    Type
REMARK                         _______ _______ _______ _____ _____    ______ ____
ROOT
ATOM      1  O   HOH     1       0.486  68.151  67.145  0.00  0.00    +0.000 OA
ENDROOT
TORSDOF 0
REMARK  Name = ../refined-set-2016/1h23/1h23_pocket.pdb
REMARK  278 active torsions:
REMARK  status: ('A' for Active; 'I' for Inactive)
REMARK    1  A    between atoms: _1  and  _3
REMARK    2  A    between atoms: _3  and  _4
REMARK    3  A    between atoms: _3  and  _6
REMARK    4  A    between atoms: _6  and  _7
REMARK    5  A    between atoms: _7  and  _8
REMARK    6  A    between atoms: _13  and  _15
REMARK    7  A    between atoms: _15  and  _16
REMARK    8  A    between atoms: _15  and  _18
REMARK    9  A    between atoms: _18  and  _19
REMARK   10  A    between atoms: _24  and  _25
REMARK   11  A    between atoms: _27  and  _29
REMARK   12  A    between atoms: _29  and  _30
REMARK   13  A    between atoms: _29  and  _32
REMARK   14  A    between atoms: _35  and  _37
REMARK   15  A    between atoms: _37  and  _38
REMARK   16  A    between atoms: _37  and  _40
REMARK   17  A    between atoms: _40  and  _41
REMARK   18  A    between atoms: _44  and  _46
REMARK   19  A    between atoms: _46  and  _47
REMARK   20  A    between atoms: _46  and  _49
REMARK   21  A    between atoms: _49  and  _50
REMARK   22  A    between atoms: _50  and  _51
REMARK   23  A    between atoms: _54  and  _56
REMARK   24  A    between atoms: _56  and  _57
REMARK   25  A    between atoms: _56  and  _59
REMARK   26  A    between atoms: _59  and  _60
REMARK   27  A    between atoms: _60  and  _61
REMARK   28  A    between atoms: _66  and  _68
REMARK   29  A    between atoms: _68  and  _69
REMARK   30  A    between atoms: _68  and  _71
REMARK   31  A    between atoms: _71  and  _72
REMARK   32  A    between atoms: _78  and  _80
REMARK   33  A    between atoms: _80  and  _81
REMARK   34  A    between atoms: _83  and  _85
REMARK   35  A    between atoms: _85  and  _86
REMARK   36  A    between atoms: _85  and  _88
REMARK   37  A    between atoms: _88  and  _89
REMARK   38  A    between atoms: _91  and  _93
REMARK   39  A    between atoms: _93  and  _94
REMARK   40  A    between atoms: _93  and  _96
REMARK   41  A    between atoms: _96  and  _97
REMARK   42  A    between atoms: _97  and  _98
REMARK   43  A    between atoms: _100  and  _102
REMARK   44  A    between atoms: _102  and  _103
REMARK   45  A    between atoms: _102  and  _105
REMARK   46  A    between atoms: _105  and  _106
REMARK   47  A    between atoms: _116  and  _118
REMARK   48  A    between atoms: _118  and  _119
REMARK   49  A    between atoms: _118  and  _121
REMARK   50  A    between atoms: _121  and  _122
REMARK   51  A    between atoms: _128  and  _129
REMARK   52  A    between atoms: _134  and  _136
REMARK   53  A    between atoms: _136  and  _137
REMARK   54  A    between atoms: _136  and  _139
REMARK   55  A    between atoms: _139  and  _140
REMARK   56  A    between atoms: _150  and  _152
REMARK   57  A    between atoms: _152  and  _153
REMARK   58  A    between atoms: _152  and  _155
REMARK   59  A    between atoms: _155  and  _156
REMARK   60  A    between atoms: _159  and  _161
REMARK   61  A    between atoms: _161  and  _162
REMARK   62  A    between atoms: _161  and  _164
REMARK   63  A    between atoms: _164  and  _165
REMARK   64  A    between atoms: _170  and  _171
REMARK   65  A    between atoms: _173  and  _175
REMARK   66  A    between atoms: _175  and  _176
REMARK   67  A    between atoms: _178  and  _180
REMARK   68  A    between atoms: _180  and  _181
REMARK   69  A    between atoms: _183  and  _185
REMARK   70  A    between atoms: _185  and  _186
REMARK   71  A    between atoms: _188  and  _190
REMARK   72  A    between atoms: _190  and  _191
REMARK   73  A    between atoms: _190  and  _193
REMARK   74  A    between atoms: _193  and  _194
REMARK   75  A    between atoms: _200  and  _202
REMARK   76  A    between atoms: _202  and  _203
REMARK   77  A    between atoms: _202  and  _205
REMARK   78  A    between atoms: _205  and  _206
REMARK   79  A    between atoms: _211  and  _212
REMARK   80  A    between atoms: _214  and  _216
REMARK   81  A    between atoms: _216  and  _217
REMARK   82  A    between atoms: _216  and  _219
REMARK   83  A    between atoms: _219  and  _220
REMARK   84  A    between atoms: _222  and  _224
REMARK   85  A    between atoms: _224  and  _225
REMARK   86  A    between atoms: _227  and  _229
REMARK   87  A    between atoms: _229  and  _230
REMARK   88  A    between atoms: _229  and  _232
REMARK   89  A    between atoms: _232  and  _233
REMARK   90  A    between atoms: _235  and  _237
REMARK   91  A    between atoms: _237  and  _238
REMARK   92  A    between atoms: _237  and  _240
REMARK   93  A    between atoms: _240  and  _241
REMARK   94  A    between atoms: _243  and  _245
REMARK   95  A    between atoms: _245  and  _246
REMARK   96  A    between atoms: _245  and  _248
REMARK   97  A    between atoms: _248  and  _249
REMARK   98  A    between atoms: _252  and  _254
REMARK   99  A    between atoms: _254  and  _255
REMARK  100  A    between atoms: _254  and  _257
REMARK  101  A    between atoms: _257  and  _258
REMARK  102  A    between atoms: _261  and  _263
REMARK  103  A    between atoms: _263  and  _264
REMARK  104  A    between atoms: _263  and  _266
REMARK  105  A    between atoms: _269  and  _271
REMARK  106  A    between atoms: _271  and  _272
REMARK  107  A    between atoms: _271  and  _274
REMARK  108  A    between atoms: _274  and  _275
REMARK  109  A    between atoms: _280  and  _281
REMARK  110  A    between atoms: _283  and  _285
REMARK  111  A    between atoms: _285  and  _286
REMARK  112  A    between atoms: _285  and  _288
REMARK  113  A    between atoms: _288  and  _289
REMARK  114  A    between atoms: _294  and  _295
REMARK  115  A    between atoms: _297  and  _299
REMARK  116  A    between atoms: _299  and  _300
REMARK  117  A    between atoms: _299  and  _302
REMARK  118  A    between atoms: _305  and  _307
REMARK  119  A    between atoms: _307  and  _308
REMARK  120  A    between atoms: _307  and  _310
REMARK  121  A    between atoms: _310  and  _311
REMARK  122  A    between atoms: _311  and  _312
REMARK  123  A    between atoms: _315  and  _317
REMARK  124  A    between atoms: _317  and  _318
REMARK  125  A    between atoms: _317  and  _320
REMARK  126  A    between atoms: _320  and  _321
REMARK  127  A    between atoms: _323  and  _325
REMARK  128  A    between atoms: _325  and  _326
REMARK  129  A    between atoms: _329  and  _331
REMARK  130  A    between atoms: _331  and  _332
REMARK  131  A    between atoms: _334  and  _336
REMARK  132  A    between atoms: _336  and  _337
REMARK  133  A    between atoms: _336  and  _339
REMARK  134  A    between atoms: _339  and  _340
REMARK  135  A    between atoms: _340  and  _341
REMARK  136  A    between atoms: _346  and  _348
REMARK  137  A    between atoms: _348  and  _349
REMARK  138  A    between atoms: _348  and  _351
REMARK  139  A    between atoms: _351  and  _352
REMARK  140  A    between atoms: _354  and  _356
REMARK  141  A    between atoms: _356  and  _357
REMARK  142  A    between atoms: _356  and  _359
REMARK  143  A    between atoms: _359  and  _360
REMARK  144  A    between atoms: _360  and  _361
REMARK  145  A    between atoms: _364  and  _366
REMARK  146  A    between atoms: _366  and  _367
REMARK  147  A    between atoms: _366  and  _369
REMARK  148  A    between atoms: _369  and  _370
REMARK  149  A    between atoms: _380  and  _382
REMARK  150  A    between atoms: _382  and  _383
REMARK  151  A    between atoms: _382  and  _385
REMARK  152  A    between atoms: _385  and  _386
REMARK  153  A    between atoms: _391  and  _393
REMARK  154  A    between atoms: _393  and  _394
REMARK  155  A    between atoms: _393  and  _396
REMARK  156  A    between atoms: _396  and  _397
REMARK  157  A    between atoms: _400  and  _402
REMARK  158  A    between atoms: _402  and  _403
REMARK  159  A    between atoms: _402  and  _405
REMARK  160  A    between atoms: _405  and  _406
REMARK  161  A    between atoms: _412  and  _414
REMARK  162  A    between atoms: _414  and  _415
REMARK  163  A    between atoms: _414  and  _417
REMARK  164  A    between atoms: _417  and  _418
REMARK  165  A    between atoms: _421  and  _423
REMARK  166  A    between atoms: _423  and  _424
REMARK  167  A    between atoms: _423  and  _426
REMARK  168  A    between atoms: _426  and  _427
REMARK  169  A    between atoms: _429  and  _431
REMARK  170  A    between atoms: _431  and  _432
REMARK  171  A    between atoms: _431  and  _434
REMARK  172  A    between atoms: _434  and  _435
REMARK  173  A    between atoms: _438  and  _440
REMARK  174  A    between atoms: _440  and  _441
REMARK  175  A    between atoms: _440  and  _443
REMARK  176  A    between atoms: _443  and  _444
REMARK  177  A    between atoms: _450  and  _452
REMARK  178  A    between atoms: _452  and  _453
REMARK  179  A    between atoms: _452  and  _455
REMARK  180  A    between atoms: _455  and  _456
REMARK  181  A    between atoms: _456  and  _457
REMARK  182  A    between atoms: _457  and  _458
REMARK  183  A    between atoms: _467  and  _469
REMARK  184  A    between atoms: _469  and  _470
REMARK  185  A    between atoms: _469  and  _472
REMARK  186  A    between atoms: _472  and  _473
REMARK  187  A    between atoms: _479  and  _481
REMARK  188  A    between atoms: _481  and  _482
REMARK  189  A    between atoms: _481  and  _484
REMARK  190  A    between atoms: _484  and  _485
REMARK  191  A    between atoms: _487  and  _489
REMARK  192  A    between atoms: _489  and  _490
REMARK  193  A    between atoms: _489  and  _492
REMARK  194  A    between atoms: _492  and  _493
REMARK  195  A    between atoms: _498  and  _500
REMARK  196  A    between atoms: _500  and  _501
REMARK  197  A    between atoms: _500  and  _503
REMARK  198  A    between atoms: _503  and  _504
REMARK  199  A    between atoms: _504  and  _505
REMARK  200  A    between atoms: _508  and  _510
REMARK  201  A    between atoms: _510  and  _511
REMARK  202  A    between atoms: _513  and  _515
REMARK  203  A    between atoms: _515  and  _516
REMARK  204  A    between atoms: _515  and  _518
REMARK  205  A    between atoms: _518  and  _519
REMARK  206  A    between atoms: _521  and  _523
REMARK  207  A    between atoms: _523  and  _524
REMARK  208  A    between atoms: _523  and  _526
REMARK  209  A    between atoms: _526  and  _527
REMARK  210  A    between atoms: _533  and  _535
REMARK  211  A    between atoms: _535  and  _536
REMARK  212  A    between atoms: _535  and  _538
REMARK  213  A    between atoms: _538  and  _539
REMARK  214  A    between atoms: _545  and  _547
REMARK  215  A    between atoms: _547  and  _548
REMARK  216  A    between atoms: _547  and  _550
REMARK  217  A    between atoms: _550  and  _551
REMARK  218  A    between atoms: _554  and  _556
REMARK  219  A    between atoms: _556  and  _557
REMARK  220  A    between atoms: _556  and  _559
REMARK  221  A    between atoms: _559  and  _560
REMARK  222  A    between atoms: _563  and  _565
REMARK  223  A    between atoms: _565  and  _566
REMARK  224  A    between atoms: _565  and  _568
REMARK  225  A    between atoms: _568  and  _569
REMARK  226  A    between atoms: _574  and  _575
REMARK  227  A    between atoms: _577  and  _579
REMARK  228  A    between atoms: _579  and  _580
REMARK  229  A    between atoms: _582  and  _584
REMARK  230  A    between atoms: _584  and  _585
REMARK  231  A    between atoms: _588  and  _590
REMARK  232  A    between atoms: _590  and  _591
REMARK  233  A    between atoms: _590  and  _593
REMARK  234  A    between atoms: _593  and  _594
REMARK  235  A    between atoms: _597  and  _599
REMARK  236  A    between atoms: _599  and  _600
REMARK  237  A    between atoms: _599  and  _602
REMARK  238  A    between atoms: _602  and  _603
REMARK  239  A    between atoms: _605  and  _607
REMARK  240  A    between atoms: _607  and  _608
REMARK  241  A    between atoms: _607  and  _610
REMARK  242  A    between atoms: _613  and  _615
REMARK  243  A    between atoms: _615  and  _616
REMARK  244  A    between atoms: _615  and  _618
REMARK  245  A    between atoms: _618  and  _619
REMARK  246  A    between atoms: _624  and  _626
REMARK  247  A    between atoms: _626  and  _627
REMARK  248  A    between atoms: _626  and  _629
REMARK  249  A    between atoms: _629  and  _630
REMARK  250  A    between atoms: _640  and  _642
REMARK  251  A    between atoms: _642  and  _643
REMARK  252  A    between atoms: _642  and  _645
REMARK  253  A    between atoms: _645  and  _646
REMARK  254  A    between atoms: _646  and  _647
REMARK  255  A    between atoms: _649  and  _651
REMARK  256  A    between atoms: _651  and  _652
REMARK  257  A    between atoms: _651  and  _654
REMARK  258  A    between atoms: _654  and  _655
REMARK  259  A    between atoms: _658  and  _660
REMARK  260  A    between atoms: _660  and  _661
REMARK  261  A    between atoms: _660  and  _663
REMARK  262  A    between atoms: _663  and  _664
REMARK  263  A    between atoms: _669  and  _671
REMARK  264  A    between atoms: _671  and  _672
REMARK  265  A    between atoms: _674  and  _676
REMARK  266  A    between atoms: _676  and  _677
REMARK  267  A    between atoms: _676  and  _679
REMARK  268  A    between atoms: _679  and  _680
REMARK  269  A    between atoms: _685  and  _686
REMARK  270  A    between atoms: _688  and  _690
REMARK  271  A    between atoms: _690  and  _691
REMARK  272  A    between atoms: _690  and  _693
REMARK  273  A    between atoms: _693  and  _694
REMARK  274  A    between atoms: _694  and  _695
REMARK  275  A    between atoms: _698  and  _700
REMARK  276  A    between atoms: _700  and  _701
REMARK  277  A    between atoms: _700  and  _703
REMARK  278  A    between atoms: _703  and  _704
REMARK                            x       y       z     vdW  Elec       q    Type
REMARK                         _______ _______ _______ _____ _____    ______ ____
ROOT
ATOM      1  O   HOH     1      -1.203  60.603  76.727  0.00  0.00    +0.000 OA
ENDROOT
TORSDOF 0
REMARK  Name = ../refined-set-2016/1h23/1h23_pocket.pdb
REMARK  278 active torsions:
REMARK  status: ('A' for Active; 'I' for Inactive)
REMARK    1  A    between atoms: _1  and  _3
REMARK    2  A    between atoms: _3  and  _4
REMARK    3  A    between atoms: _3  and  _6
REMARK    4  A    between atoms: _6  and  _7
REMARK    5  A    between atoms: _7  and  _8
REMARK    6  A    between atoms: _13  and  _15
REMARK    7  A    between atoms: _15  and  _16
REMARK    8  A    between atoms: _15  and  _18
REMARK    9  A    between atoms: _18  and  _19
REMARK   10  A    between atoms: _24  and  _25
REMARK   11  A    between atoms: _27  and  _29
REMARK   12  A    between atoms: _29  and  _30
REMARK   13  A    between atoms: _29  and  _32
REMARK   14  A    between atoms: _35  and  _37
REMARK   15  A    between atoms: _37  and  _38
REMARK   16  A    between atoms: _37  and  _40
REMARK   17  A    between atoms: _40  and  _41
REMARK   18  A    between atoms: _44  and  _46
REMARK   19  A    between atoms: _46  and  _47
REMARK   20  A    between atoms: _46  and  _49
REMARK   21  A    between atoms: _49  and  _50
REMARK   22  A    between atoms: _50  and  _51
REMARK   23  A    between atoms: _54  and  _56
REMARK   24  A    between atoms: _56  and  _57
REMARK   25  A    between atoms: _56  and  _59
REMARK   26  A    between atoms: _59  and  _60
REMARK   27  A    between atoms: _60  and  _61
REMARK   28  A    between atoms: _66  and  _68
REMARK   29  A    between atoms: _68  and  _69
REMARK   30  A    between atoms: _68  and  _71
REMARK   31  A    between atoms: _71  and  _72
REMARK   32  A    between atoms: _78  and  _80
REMARK   33  A    between atoms: _80  and  _81
REMARK   34  A    between atoms: _83  and  _85
REMARK   35  A    between atoms: _85  and  _86
REMARK   36  A    between atoms: _85  and  _88
REMARK   37  A    between atoms: _88  and  _89
REMARK   38  A    between atoms: _91  and  _93
REMARK   39  A    between atoms: _93  and  _94
REMARK   40  A    between atoms: _93  and  _96
REMARK   41  A    between atoms: _96  and  _97
REMARK   42  A    between atoms: _97  and  _98
REMARK   43  A    between atoms: _100  and  _102
REMARK   44  A    between atoms: _102  and  _103
REMARK   45  A    between atoms: _102  and  _105
REMARK   46  A    between atoms: _105  and  _106
REMARK   47  A    between atoms: _116  and  _118
REMARK   48  A    between atoms: _118  and  _119
REMARK   49  A    between atoms: _118  and  _121
REMARK   50  A    between atoms: _121  and  _122
REMARK   51  A    between atoms: _128  and  _129
REMARK   52  A    between atoms: _134  and  _136
REMARK   53  A    between atoms: _136  and  _137
REMARK   54  A    between atoms: _136  and  _139
REMARK   55  A    between atoms: _139  and  _140
REMARK   56  A    between atoms: _150  and  _152
REMARK   57  A    between atoms: _152  and  _153
REMARK   58  A    between atoms: _152  and  _155
REMARK   59  A    between atoms: _155  and  _156
REMARK   60  A    between atoms: _159  and  _161
REMARK   61  A    between atoms: _161  and  _162
REMARK   62  A    between atoms: _161  and  _164
REMARK   63  A    between atoms: _164  and  _165
REMARK   64  A    between atoms: _170  and  _171
REMARK   65  A    between atoms: _173  and  _175
REMARK   66  A    between atoms: _175  and  _176
REMARK   67  A    between atoms: _178  and  _180
REMARK   68  A    between atoms: _180  and  _181
REMARK   69  A    between atoms: _183  and  _185
REMARK   70  A    between atoms: _185  and  _186
REMARK   71  A    between atoms: _188  and  _190
REMARK   72  A    between atoms: _190  and  _191
REMARK   73  A    between atoms: _190  and  _193
REMARK   74  A    between atoms: _193  and  _194
REMARK   75  A    between atoms: _200  and  _202
REMARK   76  A    between atoms: _202  and  _203
REMARK   77  A    between atoms: _202  and  _205
REMARK   78  A    between atoms: _205  and  _206
REMARK   79  A    between atoms: _211  and  _212
REMARK   80  A    between atoms: _214  and  _216
REMARK   81  A    between atoms: _216  and  _217
REMARK   82  A    between atoms: _216  and  _219
REMARK   83  A    between atoms: _219  and  _220
REMARK   84  A    between atoms: _222  and  _224
REMARK   85  A    between atoms: _224  and  _225
REMARK   86  A    between atoms: _227  and  _229
REMARK   87  A    between atoms: _229  and  _230
REMARK   88  A    between atoms: _229  and  _232
REMARK   89  A    between atoms: _232  and  _233
REMARK   90  A    between atoms: _235  and  _237
REMARK   91  A    between atoms: _237  and  _238
REMARK   92  A    between atoms: _237  and  _240
REMARK   93  A    between atoms: _240  and  _241
REMARK   94  A    between atoms: _243  and  _245
REMARK   95  A    between atoms: _245  and  _246
REMARK   96  A    between atoms: _245  and  _248
REMARK   97  A    between atoms: _248  and  _249
REMARK   98  A    between atoms: _252  and  _254
REMARK   99  A    between atoms: _254  and  _255
REMARK  100  A    between atoms: _254  and  _257
REMARK  101  A    between atoms: _257  and  _258
REMARK  102  A    between atoms: _261  and  _263
REMARK  103  A    between atoms: _263  and  _264
REMARK  104  A    between atoms: _263  and  _266
REMARK  105  A    between atoms: _269  and  _271
REMARK  106  A    between atoms: _271  and  _272
REMARK  107  A    between atoms: _271  and  _274
REMARK  108  A    between atoms: _274  and  _275
REMARK  109  A    between atoms: _280  and  _281
REMARK  110  A    between atoms: _283  and  _285
REMARK  111  A    between atoms: _285  and  _286
REMARK  112  A    between atoms: _285  and  _288
REMARK  113  A    between atoms: _288  and  _289
REMARK  114  A    between atoms: _294  and  _295
REMARK  115  A    between atoms: _297  and  _299
REMARK  116  A    between atoms: _299  and  _300
REMARK  117  A    between atoms: _299  and  _302
REMARK  118  A    between atoms: _305  and  _307
REMARK  119  A    between atoms: _307  and  _308
REMARK  120  A    between atoms: _307  and  _310
REMARK  121  A    between atoms: _310  and  _311
REMARK  122  A    between atoms: _311  and  _312
REMARK  123  A    between atoms: _315  and  _317
REMARK  124  A    between atoms: _317  and  _318
REMARK  125  A    between atoms: _317  and  _320
REMARK  126  A    between atoms: _320  and  _321
REMARK  127  A    between atoms: _323  and  _325
REMARK  128  A    between atoms: _325  and  _326
REMARK  129  A    between atoms: _329  and  _331
REMARK  130  A    between atoms: _331  and  _332
REMARK  131  A    between atoms: _334  and  _336
REMARK  132  A    between atoms: _336  and  _337
REMARK  133  A    between atoms: _336  and  _339
REMARK  134  A    between atoms: _339  and  _340
REMARK  135  A    between atoms: _340  and  _341
REMARK  136  A    between atoms: _346  and  _348
REMARK  137  A    between atoms: _348  and  _349
REMARK  138  A    between atoms: _348  and  _351
REMARK  139  A    between atoms: _351  and  _352
REMARK  140  A    between atoms: _354  and  _356
REMARK  141  A    between atoms: _356  and  _357
REMARK  142  A    between atoms: _356  and  _359
REMARK  143  A    between atoms: _359  and  _360
REMARK  144  A    between atoms: _360  and  _361
REMARK  145  A    between atoms: _364  and  _366
REMARK  146  A    between atoms: _366  and  _367
REMARK  147  A    between atoms: _366  and  _369
REMARK  148  A    between atoms: _369  and  _370
REMARK  149  A    between atoms: _380  and  _382
REMARK  150  A    between atoms: _382  and  _383
REMARK  151  A    between atoms: _382  and  _385
REMARK  152  A    between atoms: _385  and  _386
REMARK  153  A    between atoms: _391  and  _393
REMARK  154  A    between atoms: _393  and  _394
REMARK  155  A    between atoms: _393  and  _396
REMARK  156  A    between atoms: _396  and  _397
REMARK  157  A    between atoms: _400  and  _402
REMARK  158  A    between atoms: _402  and  _403
REMARK  159  A    between atoms: _402  and  _405
REMARK  160  A    between atoms: _405  and  _406
REMARK  161  A    between atoms: _412  and  _414
REMARK  162  A    between atoms: _414  and  _415
REMARK  163  A    between atoms: _414  and  _417
REMARK  164  A    between atoms: _417  and  _418
REMARK  165  A    between atoms: _421  and  _423
REMARK  166  A    between atoms: _423  and  _424
REMARK  167  A    between atoms: _423  and  _426
REMARK  168  A    between atoms: _426  and  _427
REMARK  169  A    between atoms: _429  and  _431
REMARK  170  A    between atoms: _431  and  _432
REMARK  171  A    between atoms: _431  and  _434
REMARK  172  A    between atoms: _434  and  _435
REMARK  173  A    between atoms: _438  and  _440
REMARK  174  A    between atoms: _440  and  _441
REMARK  175  A    between atoms: _440  and  _443
REMARK  176  A    between atoms: _443  and  _444
REMARK  177  A    between atoms: _450  and  _452
REMARK  178  A    between atoms: _452  and  _453
REMARK  179  A    between atoms: _452  and  _455
REMARK  180  A    between atoms: _455  and  _456
REMARK  181  A    between atoms: _456  and  _457
REMARK  182  A    between atoms: _457  and  _458
REMARK  183  A    between atoms: _467  and  _469
REMARK  184  A    between atoms: _469  and  _470
REMARK  185  A    between atoms: _469  and  _472
REMARK  186  A    between atoms: _472  and  _473
REMARK  187  A    between atoms: _479  and  _481
REMARK  188  A    between atoms: _481  and  _482
REMARK  189  A    between atoms: _481  and  _484
REMARK  190  A    between atoms: _484  and  _485
REMARK  191  A    between atoms: _487  and  _489
REMARK  192  A    between atoms: _489  and  _490
REMARK  193  A    between atoms: _489  and  _492
REMARK  194  A    between atoms: _492  and  _493
REMARK  195  A    between atoms: _498  and  _500
REMARK  196  A    between atoms: _500  and  _501
REMARK  197  A    between atoms: _500  and  _503
REMARK  198  A    between atoms: _503  and  _504
REMARK  199  A    between atoms: _504  and  _505
REMARK  200  A    between atoms: _508  and  _510
REMARK  201  A    between atoms: _510  and  _511
REMARK  202  A    between atoms: _513  and  _515
REMARK  203  A    between atoms: _515  and  _516
REMARK  204  A    between atoms: _515  and  _518
REMARK  205  A    between atoms: _518  and  _519
REMARK  206  A    between atoms: _521  and  _523
REMARK  207  A    between atoms: _523  and  _524
REMARK  208  A    between atoms: _523  and  _526
REMARK  209  A    between atoms: _526  and  _527
REMARK  210  A    between atoms: _533  and  _535
REMARK  211  A    between atoms: _535  and  _536
REMARK  212  A    between atoms: _535  and  _538
REMARK  213  A    between atoms: _538  and  _539
REMARK  214  A    between atoms: _545  and  _547
REMARK  215  A    between atoms: _547  and  _548
REMARK  216  A    between atoms: _547  and  _550
REMARK  217  A    between atoms: _550  and  _551
REMARK  218  A    between atoms: _554  and  _556
REMARK  219  A    between atoms: _556  and  _557
REMARK  220  A    between atoms: _556  and  _559
REMARK  221  A    between atoms: _559  and  _560
REMARK  222  A    between atoms: _563  and  _565
REMARK  223  A    between atoms: _565  and  _566
REMARK  224  A    between atoms: _565  and  _568
REMARK  225  A    between atoms: _568  and  _569
REMARK  226  A    between atoms: _574  and  _575
REMARK  227  A    between atoms: _577  and  _579
REMARK  228  A    between atoms: _579  and  _580
REMARK  229  A    between atoms: _582  and  _584
REMARK  230  A    between atoms: _584  and  _585
REMARK  231  A    between atoms: _588  and  _590
REMARK  232  A    between atoms: _590  and  _591
REMARK  233  A    between atoms: _590  and  _593
REMARK  234  A    between atoms: _593  and  _594
REMARK  235  A    between atoms: _597  and  _599
REMARK  236  A    between atoms: _599  and  _600
REMARK  237  A    between atoms: _599  and  _602
REMARK  238  A    between atoms: _602  and  _603
REMARK  239  A    between atoms: _605  and  _607
REMARK  240  A    between atoms: _607  and  _608
REMARK  241  A    between atoms: _607  and  _610
REMARK  242  A    between atoms: _613  and  _615
REMARK  243  A    between atoms: _615  and  _616
REMARK  244  A    between atoms: _615  and  _618
REMARK  245  A    between atoms: _618  and  _619
REMARK  246  A    between atoms: _624  and  _626
REMARK  247  A    between atoms: _626  and  _627
REMARK  248  A    between atoms: _626  and  _629
REMARK  249  A    between atoms: _629  and  _630
REMARK  250  A    between atoms: _640  and  _642
REMARK  251  A    between atoms: _642  and  _643
REMARK  252  A    between atoms: _642  and  _645
REMARK  253  A    between atoms: _645  and  _646
REMARK  254  A    between atoms: _646  and  _647
REMARK  255  A    between atoms: _649  and  _651
REMARK  256  A    between atoms: _651  and  _652
REMARK  257  A    between atoms: _651  and  _654
REMARK  258  A    between atoms: _654  and  _655
REMARK  259  A    between atoms: _658  and  _660
REMARK  260  A    between atoms: _660  and  _661
REMARK  261  A    between atoms: _660  and  _663
REMARK  262  A    between atoms: _663  and  _664
REMARK  263  A    between atoms: _669  and  _671
REMARK  264  A    between atoms: _671  and  _672
REMARK  265  A    between atoms: _674  and  _676
REMARK  266  A    between atoms: _676  and  _677
REMARK  267  A    between atoms: _676  and  _679
REMARK  268  A    between atoms: _679  and  _680
REMARK  269  A    between atoms: _685  and  _686
REMARK  270  A    between atoms: _688  and  _690
REMARK  271  A    between atoms: _690  and  _691
REMARK  272  A    between atoms: _690  and  _693
REMARK  273  A    between atoms: _693  and  _694
REMARK  274  A    between atoms: _694  and  _695
REMARK  275  A    between atoms: _698  and  _700
REMARK  276  A    between atoms: _700  and  _701
REMARK  277  A    between atoms: _700  and  _703
REMARK  278  A    between atoms: _703  and  _704
REMARK                            x       y       z     vdW  Elec       q    Type
REMARK                         _______ _______ _______ _____ _____    ______ ____
ROOT
ATOM      1  O   HOH     1       1.472  62.902  75.795  0.00  0.00    +0.000 OA
ENDROOT
TORSDOF 0
