REMARK  Name = ../refined-set-2016/3m3c/3m3c_pocket.pdb
REMARK  124 active torsions:
REMARK  status: ('A' for Active; 'I' for Inactive)
REMARK    1  A    between atoms: _1  and  _3
REMARK    2  A    between atoms: _3  and  _4
REMARK    3  A    between atoms: _6  and  _8
REMARK    4  A    between atoms: _8  and  _9
REMARK    5  A    between atoms: _8  and  _11
REMARK    6  A    between atoms: _11  and  _12
REMARK    7  A    between atoms: _18  and  _19
REMARK    8  A    between atoms: _24  and  _26
REMARK    9  A    between atoms: _26  and  _27
REMARK   10  A    between atoms: _26  and  _29
REMARK   11  A    between atoms: _29  and  _30
REMARK   12  A    between atoms: _35  and  _37
REMARK   13  A    between atoms: _37  and  _38
REMARK   14  A    between atoms: _37  and  _40
REMARK   15  A    between atoms: _40  and  _41
REMARK   16  A    between atoms: _46  and  _48
REMARK   17  A    between atoms: _48  and  _49
REMARK   18  A    between atoms: _48  and  _51
REMARK   19  A    between atoms: _51  and  _52
REMARK   20  A    between atoms: _55  and  _57
REMARK   21  A    between atoms: _57  and  _58
REMARK   22  A    between atoms: _57  and  _60
REMARK   23  A    between atoms: _60  and  _61
REMARK   24  A    between atoms: _64  and  _66
REMARK   25  A    between atoms: _66  and  _67
REMARK   26  A    between atoms: _66  and  _69
REMARK   27  A    between atoms: _69  and  _70
REMARK   28  A    between atoms: _75  and  _77
REMARK   29  A    between atoms: _77  and  _78
REMARK   30  A    between atoms: _77  and  _80
REMARK   31  A    between atoms: _80  and  _81
REMARK   32  A    between atoms: _86  and  _87
REMARK   33  A    between atoms: _89  and  _91
REMARK   34  A    between atoms: _91  and  _92
REMARK   35  A    between atoms: _91  and  _94
REMARK   36  A    between atoms: _94  and  _95
REMARK   37  A    between atoms: _100  and  _102
REMARK   38  A    between atoms: _102  and  _103
REMARK   39  A    between atoms: _102  and  _105
REMARK   40  A    between atoms: _105  and  _106
REMARK   41  A    between atoms: _109  and  _111
REMARK   42  A    between atoms: _111  and  _112
REMARK   43  A    between atoms: _115  and  _117
REMARK   44  A    between atoms: _117  and  _118
REMARK   45  A    between atoms: _117  and  _120
REMARK   46  A    between atoms: _120  and  _121
REMARK   47  A    between atoms: _127  and  _129
REMARK   48  A    between atoms: _129  and  _130
REMARK   49  A    between atoms: _129  and  _132
REMARK   50  A    between atoms: _132  and  _133
REMARK   51  A    between atoms: _133  and  _134
REMARK   52  A    between atoms: _134  and  _135
REMARK   53  A    between atoms: _144  and  _146
REMARK   54  A    between atoms: _146  and  _147
REMARK   55  A    between atoms: _146  and  _149
REMARK   56  A    between atoms: _149  and  _150
REMARK   57  A    between atoms: _150  and  _151
REMARK   58  A    between atoms: _156  and  _158
REMARK   59  A    between atoms: _158  and  _159
REMARK   60  A    between atoms: _158  and  _161
REMARK   61  A    between atoms: _161  and  _162
REMARK   62  A    between atoms: _162  and  _163
REMARK   63  A    between atoms: _166  and  _168
REMARK   64  A    between atoms: _168  and  _169
REMARK   65  A    between atoms: _168  and  _171
REMARK   66  A    between atoms: _174  and  _176
REMARK   67  A    between atoms: _176  and  _177
REMARK   68  A    between atoms: _176  and  _179
REMARK   69  A    between atoms: _179  and  _180
REMARK   70  A    between atoms: _183  and  _185
REMARK   71  A    between atoms: _185  and  _186
REMARK   72  A    between atoms: _185  and  _188
REMARK   73  A    between atoms: _188  and  _189
REMARK   74  A    between atoms: _195  and  _197
REMARK   75  A    between atoms: _197  and  _198
REMARK   76  A    between atoms: _197  and  _200
REMARK   77  A    between atoms: _200  and  _201
REMARK   78  A    between atoms: _206  and  _208
REMARK   79  A    between atoms: _208  and  _209
REMARK   80  A    between atoms: _208  and  _211
REMARK   81  A    between atoms: _211  and  _212
REMARK   82  A    between atoms: _214  and  _216
REMARK   83  A    between atoms: _216  and  _217
REMARK   84  A    between atoms: _216  and  _219
REMARK   85  A    between atoms: _219  and  _220
REMARK   86  A    between atoms: _220  and  _221
REMARK   87  A    between atoms: _221  and  _222
REMARK   88  A    between atoms: _232  and  _233
REMARK   89  A    between atoms: _238  and  _240
REMARK   90  A    between atoms: _240  and  _241
REMARK   91  A    between atoms: _240  and  _243
REMARK   92  A    between atoms: _243  and  _244
REMARK   93  A    between atoms: _254  and  _256
REMARK   94  A    between atoms: _256  and  _257
REMARK   95  A    between atoms: _256  and  _259
REMARK   96  A    between atoms: _259  and  _260
REMARK   97  A    between atoms: _263  and  _265
REMARK   98  A    between atoms: _265  and  _266
REMARK   99  A    between atoms: _265  and  _268
REMARK  100  A    between atoms: _271  and  _273
REMARK  101  A    between atoms: _273  and  _274
REMARK  102  A    between atoms: _273  and  _276
REMARK  103  A    between atoms: _276  and  _277
REMARK  104  A    between atoms: _277  and  _278
REMARK  105  A    between atoms: _281  and  _283
REMARK  106  A    between atoms: _283  and  _284
REMARK  107  A    between atoms: _283  and  _286
REMARK  108  A    between atoms: _286  and  _287
REMARK  109  A    between atoms: _287  and  _288
REMARK  110  A    between atoms: _293  and  _295
REMARK  111  A    between atoms: _295  and  _296
REMARK  112  A    between atoms: _295  and  _298
REMARK  113  A    between atoms: _298  and  _299
REMARK  114  A    between atoms: _299  and  _300
REMARK  115  A    between atoms: _300  and  _301
REMARK  116  A    between atoms: _310  and  _312
REMARK  117  A    between atoms: _312  and  _313
REMARK  118  A    between atoms: _312  and  _315
REMARK  119  A    between atoms: _315  and  _316
REMARK  120  A    between atoms: _316  and  _317
REMARK  121  A    between atoms: _322  and  _324
REMARK  122  A    between atoms: _324  and  _325
REMARK  123  A    between atoms: _324  and  _327
REMARK  124  A    between atoms: _327  and  _328
REMARK                            x       y       z     vdW  Elec       q    Type
REMARK                         _______ _______ _______ _____ _____    ______ ____
ROOT
ATOM      1  CA  ASN A   4     -10.029   3.345 -30.551  0.00  0.00    +0.158 C 
ENDROOT
BRANCH   1   2
ATOM      2  C   ASN A   4      -9.499   1.913 -30.657  0.00  0.00    +0.241 C 
ATOM      3  N   ASN A   5      -8.193   1.760 -30.465  0.00  0.00    -0.297 N 
ATOM      4  H   ASN A   5      -7.607   2.602 -30.296  0.00  0.00    +0.150 HD
ATOM      5  O   ASN A   4     -10.254   0.972 -30.894  0.00  0.00    -0.273 OA
BRANCH   3   6
ATOM      6  CA  ASN A   5      -7.554   0.447 -30.484  0.00  0.00    +0.158 C 
BRANCH   6   7
ATOM      7  C   ASN A   5      -7.540  -0.084 -29.058  0.00  0.00    +0.241 C 
ATOM      8  N   THR A   6      -7.299   0.830 -28.124  0.00  0.00    -0.295 N 
ATOM      9  H   THR A   6      -7.166   1.819 -28.416  0.00  0.00    +0.150 HD
ATOM     10  O   ASN A   5      -7.736  -1.278 -28.813  0.00  0.00    -0.273 OA
BRANCH   8  11
ATOM     11  CA  THR A   6      -7.214   0.502 -26.707  0.00  0.00    +0.176 C 
BRANCH  11  12
ATOM     12  C   THR A   6      -7.570   1.704 -25.839  0.00  0.00    +0.243 C 
ATOM     13  N   THR A   7      -8.295   1.468 -24.750  0.00  0.00    -0.296 N 
ATOM     14  H   THR A   7      -8.641   0.506 -24.559  0.00  0.00    +0.150 HD
ATOM     15  O   THR A   6      -7.200   2.831 -26.158  0.00  0.00    -0.273 OA
BRANCH  13  16
ATOM     16  CA  THR A   7      -8.609   2.547 -23.821  0.00  0.00    +0.164 C 
BRANCH  16  17
ATOM     17  C   THR A   7      -8.364   2.063 -22.392  0.00  0.00    +0.229 C 
ATOM     18  O   THR A   7      -8.600   0.896 -22.062  0.00  0.00    -0.286 OA
ENDBRANCH  16  17
BRANCH  16  19
ATOM     19  CB  THR A   7     -10.076   3.048 -23.920  0.00  0.00    +0.136 C 
ATOM     20  CG2 THR A   7     -10.406   3.478 -25.343  0.00  0.00    +0.034 C 
BRANCH  19  21
ATOM     21  OG1 THR A   7     -10.976   2.014 -23.500  0.00  0.00    -0.382 OA
ATOM     22  HG1 THR A   7     -11.908   2.342 -23.566  0.00  0.00    +0.210 HD
ENDBRANCH  19  21
ENDBRANCH  16  19
ENDBRANCH  13  16
ENDBRANCH  11  12
BRANCH  11  23
ATOM     23  CB  THR A   6      -5.770   0.087 -26.337  0.00  0.00    +0.137 C 
ATOM     24  CG2 THR A   6      -5.637  -0.143 -24.842  0.00  0.00    +0.034 C 
BRANCH  23  25
ATOM     25  OG1 THR A   6      -5.414  -1.104 -27.045  0.00  0.00    -0.382 OA
ATOM     26  HG1 THR A   6      -6.038  -1.832 -26.799  0.00  0.00    +0.210 HD
ENDBRANCH  23  25
ENDBRANCH  11  23
ENDBRANCH   8  11
ENDBRANCH   6   7
BRANCH   6  27
ATOM     27  CB  ASN A   5      -6.110   0.566 -30.962  0.00  0.00    +0.114 C 
BRANCH  27  28
ATOM     28  CG  ASN A   5      -6.009   0.827 -32.437  0.00  0.00    +0.222 C 
ATOM     29  ND2 ASN A   5      -5.943   2.099 -32.809  0.00  0.00    -0.329 N 
ATOM     30 HD21 ASN A   5      -5.953   2.852 -32.092  0.00  0.00    +0.145 HD
ATOM     31 HD22 ASN A   5      -5.881   2.343 -33.818  0.00  0.00    +0.145 HD
ATOM     32  OD1 ASN A   5      -6.001  -0.107 -33.240  0.00  0.00    -0.275 OA
ENDBRANCH  27  28
ENDBRANCH   6  27
ENDBRANCH   3   6
ENDBRANCH   1   2
BRANCH   1  34
ATOM     33  C   PRO A   3     -10.993   3.867 -32.724  0.00  0.00    +0.241 C 
ATOM     34  N   ASN A   4     -11.168   3.595 -31.434  0.00  0.00    -0.297 N 
ATOM     35  H   ASN A   4     -12.132   3.559 -31.046  0.00  0.00    +0.150 HD
ATOM     36  O   PRO A   3      -9.881   3.928 -33.244  0.00  0.00    -0.273 OA
BRANCH  33  43
ATOM     37  C   ASN A   2     -14.045   2.402 -33.017  0.00  0.00    +0.244 C 
ATOM     38  O   ASN A   2     -15.122   2.155 -32.481  0.00  0.00    -0.273 OA
ATOM     39  N   PRO A   3     -13.487   3.621 -32.944  0.00  0.00    -0.272 N 
ATOM     40  CD  PRO A   3     -14.227   4.731 -32.317  0.00  0.00    +0.094 C 
ATOM     41  CG  PRO A   3     -13.270   5.902 -32.463  0.00  0.00    +0.024 C 
ATOM     42  CB  PRO A   3     -12.547   5.597 -33.732  0.00  0.00    +0.031 C 
ATOM     43  CA  PRO A   3     -12.254   4.114 -33.561  0.00  0.00    +0.152 C 
BRANCH  37  44
ATOM     44  CA  ASN A   2     -13.331   1.332 -33.850  0.00  0.00    +0.158 C 
BRANCH  44  46
ATOM     45  C   GLY A   1     -11.032   1.054 -34.563  0.00  0.00    +0.240 C 
ATOM     46  N   ASN A   2     -11.909   1.158 -33.567  0.00  0.00    -0.297 N 
ATOM     47  H   ASN A   2     -11.580   1.115 -32.582  0.00  0.00    +0.150 HD
ATOM     48  O   GLY A   1     -11.364   1.125 -35.746  0.00  0.00    -0.274 OA
BRANCH  45  49
ATOM     49  CA  GLY A   1      -9.573   0.857 -34.198  0.00  0.00    +0.169 C 
BRANCH  49  50
ATOM     50  N   GLY A   1      -8.739   1.170 -35.344  0.00  0.00    -0.236 NA
ATOM     51  H   GLY A   1      -8.357   2.132 -35.447  0.00  0.00    +0.142 HD
ENDBRANCH  49  50
ENDBRANCH  45  49
ENDBRANCH  44  46
BRANCH  44  52
ATOM     52  CB  ASN A   2     -14.058  -0.005 -33.673  0.00  0.00    +0.114 C 
BRANCH  52  53
ATOM     53  CG  ASN A   2     -13.942  -0.563 -32.254  0.00  0.00    +0.222 C 
ATOM     54  ND2 ASN A   2     -13.125   0.076 -31.419  0.00  0.00    -0.329 N 
ATOM     55 HD21 ASN A   2     -13.007  -0.266 -30.444  0.00  0.00    +0.145 HD
ATOM     56 HD22 ASN A   2     -12.605   0.917 -31.742  0.00  0.00    +0.145 HD
ATOM     57  OD1 ASN A   2     -14.581  -1.564 -31.920  0.00  0.00    -0.275 OA
ENDBRANCH  52  53
ENDBRANCH  44  52
ENDBRANCH  37  44
ENDBRANCH  33  43
ENDBRANCH   1  34
BRANCH   1  58
ATOM     58  CB  ASN A   4     -10.407   3.588 -29.084  0.00  0.00    +0.114 C 
BRANCH  58  59
ATOM     59  CG  ASN A   4     -11.017   4.947 -28.849  0.00  0.00    +0.222 C 
ATOM     60  ND2 ASN A   4     -12.125   4.973 -28.125  0.00  0.00    -0.329 N 
ATOM     61 HD21 ASN A   4     -12.532   4.086 -27.765  0.00  0.00    +0.145 HD
ATOM     62 HD22 ASN A   4     -12.589   5.880 -27.916  0.00  0.00    +0.145 HD
ATOM     63  OD1 ASN A   4     -10.494   5.966 -29.299  0.00  0.00    -0.275 OA
ENDBRANCH  58  59
ENDBRANCH   1  58
TORSDOF 23
REMARK  Name = ../refined-set-2016/3m3c/3m3c_pocket.pdb
REMARK  124 active torsions:
REMARK  status: ('A' for Active; 'I' for Inactive)
REMARK    1  A    between atoms: _1  and  _3
REMARK    2  A    between atoms: _3  and  _4
REMARK    3  A    between atoms: _6  and  _8
REMARK    4  A    between atoms: _8  and  _9
REMARK    5  A    between atoms: _8  and  _11
REMARK    6  A    between atoms: _11  and  _12
REMARK    7  A    between atoms: _18  and  _19
REMARK    8  A    between atoms: _24  and  _26
REMARK    9  A    between atoms: _26  and  _27
REMARK   10  A    between atoms: _26  and  _29
REMARK   11  A    between atoms: _29  and  _30
REMARK   12  A    between atoms: _35  and  _37
REMARK   13  A    between atoms: _37  and  _38
REMARK   14  A    between atoms: _37  and  _40
REMARK   15  A    between atoms: _40  and  _41
REMARK   16  A    between atoms: _46  and  _48
REMARK   17  A    between atoms: _48  and  _49
REMARK   18  A    between atoms: _48  and  _51
REMARK   19  A    between atoms: _51  and  _52
REMARK   20  A    between atoms: _55  and  _57
REMARK   21  A    between atoms: _57  and  _58
REMARK   22  A    between atoms: _57  and  _60
REMARK   23  A    between atoms: _60  and  _61
REMARK   24  A    between atoms: _64  and  _66
REMARK   25  A    between atoms: _66  and  _67
REMARK   26  A    between atoms: _66  and  _69
REMARK   27  A    between atoms: _69  and  _70
REMARK   28  A    between atoms: _75  and  _77
REMARK   29  A    between atoms: _77  and  _78
REMARK   30  A    between atoms: _77  and  _80
REMARK   31  A    between atoms: _80  and  _81
REMARK   32  A    between atoms: _86  and  _87
REMARK   33  A    between atoms: _89  and  _91
REMARK   34  A    between atoms: _91  and  _92
REMARK   35  A    between atoms: _91  and  _94
REMARK   36  A    between atoms: _94  and  _95
REMARK   37  A    between atoms: _100  and  _102
REMARK   38  A    between atoms: _102  and  _103
REMARK   39  A    between atoms: _102  and  _105
REMARK   40  A    between atoms: _105  and  _106
REMARK   41  A    between atoms: _109  and  _111
REMARK   42  A    between atoms: _111  and  _112
REMARK   43  A    between atoms: _115  and  _117
REMARK   44  A    between atoms: _117  and  _118
REMARK   45  A    between atoms: _117  and  _120
REMARK   46  A    between atoms: _120  and  _121
REMARK   47  A    between atoms: _127  and  _129
REMARK   48  A    between atoms: _129  and  _130
REMARK   49  A    between atoms: _129  and  _132
REMARK   50  A    between atoms: _132  and  _133
REMARK   51  A    between atoms: _133  and  _134
REMARK   52  A    between atoms: _134  and  _135
REMARK   53  A    between atoms: _144  and  _146
REMARK   54  A    between atoms: _146  and  _147
REMARK   55  A    between atoms: _146  and  _149
REMARK   56  A    between atoms: _149  and  _150
REMARK   57  A    between atoms: _150  and  _151
REMARK   58  A    between atoms: _156  and  _158
REMARK   59  A    between atoms: _158  and  _159
REMARK   60  A    between atoms: _158  and  _161
REMARK   61  A    between atoms: _161  and  _162
REMARK   62  A    between atoms: _162  and  _163
REMARK   63  A    between atoms: _166  and  _168
REMARK   64  A    between atoms: _168  and  _169
REMARK   65  A    between atoms: _168  and  _171
REMARK   66  A    between atoms: _174  and  _176
REMARK   67  A    between atoms: _176  and  _177
REMARK   68  A    between atoms: _176  and  _179
REMARK   69  A    between atoms: _179  and  _180
REMARK   70  A    between atoms: _183  and  _185
REMARK   71  A    between atoms: _185  and  _186
REMARK   72  A    between atoms: _185  and  _188
REMARK   73  A    between atoms: _188  and  _189
REMARK   74  A    between atoms: _195  and  _197
REMARK   75  A    between atoms: _197  and  _198
REMARK   76  A    between atoms: _197  and  _200
REMARK   77  A    between atoms: _200  and  _201
REMARK   78  A    between atoms: _206  and  _208
REMARK   79  A    between atoms: _208  and  _209
REMARK   80  A    between atoms: _208  and  _211
REMARK   81  A    between atoms: _211  and  _212
REMARK   82  A    between atoms: _214  and  _216
REMARK   83  A    between atoms: _216  and  _217
REMARK   84  A    between atoms: _216  and  _219
REMARK   85  A    between atoms: _219  and  _220
REMARK   86  A    between atoms: _220  and  _221
REMARK   87  A    between atoms: _221  and  _222
REMARK   88  A    between atoms: _232  and  _233
REMARK   89  A    between atoms: _238  and  _240
REMARK   90  A    between atoms: _240  and  _241
REMARK   91  A    between atoms: _240  and  _243
REMARK   92  A    between atoms: _243  and  _244
REMARK   93  A    between atoms: _254  and  _256
REMARK   94  A    between atoms: _256  and  _257
REMARK   95  A    between atoms: _256  and  _259
REMARK   96  A    between atoms: _259  and  _260
REMARK   97  A    between atoms: _263  and  _265
REMARK   98  A    between atoms: _265  and  _266
REMARK   99  A    between atoms: _265  and  _268
REMARK  100  A    between atoms: _271  and  _273
REMARK  101  A    between atoms: _273  and  _274
REMARK  102  A    between atoms: _273  and  _276
REMARK  103  A    between atoms: _276  and  _277
REMARK  104  A    between atoms: _277  and  _278
REMARK  105  A    between atoms: _281  and  _283
REMARK  106  A    between atoms: _283  and  _284
REMARK  107  A    between atoms: _283  and  _286
REMARK  108  A    between atoms: _286  and  _287
REMARK  109  A    between atoms: _287  and  _288
REMARK  110  A    between atoms: _293  and  _295
REMARK  111  A    between atoms: _295  and  _296
REMARK  112  A    between atoms: _295  and  _298
REMARK  113  A    between atoms: _298  and  _299
REMARK  114  A    between atoms: _299  and  _300
REMARK  115  A    between atoms: _300  and  _301
REMARK  116  A    between atoms: _310  and  _312
REMARK  117  A    between atoms: _312  and  _313
REMARK  118  A    between atoms: _312  and  _315
REMARK  119  A    between atoms: _315  and  _316
REMARK  120  A    between atoms: _316  and  _317
REMARK  121  A    between atoms: _322  and  _324
REMARK  122  A    between atoms: _324  and  _325
REMARK  123  A    between atoms: _324  and  _327
REMARK  124  A    between atoms: _327  and  _328
REMARK                            x       y       z     vdW  Elec       q    Type
REMARK                         _______ _______ _______ _____ _____    ______ ____
ROOT
ATOM      1  CB  ASN A   1     -11.552   4.050 -18.329  0.00  0.00    +0.110 C 
ENDROOT
BRANCH   1   2
ATOM      2  CG  ASN A   1     -11.655   3.990 -19.842  0.00  0.00    +0.221 C 
ATOM      3  ND2 ASN A   1     -11.648   2.781 -20.390  0.00  0.00    -0.329 N 
ATOM      4 HD21 ASN A   1     -11.587   1.937 -19.786  0.00  0.00    +0.145 HD
ATOM      5 HD22 ASN A   1     -11.703   2.678 -21.423  0.00  0.00    +0.145 HD
ATOM      6  OD1 ASN A   1     -11.725   5.018 -20.508  0.00  0.00    -0.275 OA
ENDBRANCH   1   2
BRANCH   1   7
ATOM      7  CA  ASN A   1     -10.122   4.304 -17.851  0.00  0.00    +0.142 C 
BRANCH   7   8
ATOM      8  N   ASN A   1      -9.240   3.359 -18.516  0.00  0.00    -0.239 NA
ATOM      9  H   ASN A   1      -9.256   2.358 -18.236  0.00  0.00    +0.142 HD
ENDBRANCH   7   8
BRANCH   7  10
ATOM     10  C   ASN A   1     -10.104   4.251 -16.330  0.00  0.00    +0.225 C 
ATOM     11  O   ASN A   1      -9.910   3.188 -15.739  0.00  0.00    -0.287 OA
ENDBRANCH   7  10
ENDBRANCH   1   7
TORSDOF 4
REMARK  Name = ../refined-set-2016/3m3c/3m3c_pocket.pdb
REMARK  124 active torsions:
REMARK  status: ('A' for Active; 'I' for Inactive)
REMARK    1  A    between atoms: _1  and  _3
REMARK    2  A    between atoms: _3  and  _4
REMARK    3  A    between atoms: _6  and  _8
REMARK    4  A    between atoms: _8  and  _9
REMARK    5  A    between atoms: _8  and  _11
REMARK    6  A    between atoms: _11  and  _12
REMARK    7  A    between atoms: _18  and  _19
REMARK    8  A    between atoms: _24  and  _26
REMARK    9  A    between atoms: _26  and  _27
REMARK   10  A    between atoms: _26  and  _29
REMARK   11  A    between atoms: _29  and  _30
REMARK   12  A    between atoms: _35  and  _37
REMARK   13  A    between atoms: _37  and  _38
REMARK   14  A    between atoms: _37  and  _40
REMARK   15  A    between atoms: _40  and  _41
REMARK   16  A    between atoms: _46  and  _48
REMARK   17  A    between atoms: _48  and  _49
REMARK   18  A    between atoms: _48  and  _51
REMARK   19  A    between atoms: _51  and  _52
REMARK   20  A    between atoms: _55  and  _57
REMARK   21  A    between atoms: _57  and  _58
REMARK   22  A    between atoms: _57  and  _60
REMARK   23  A    between atoms: _60  and  _61
REMARK   24  A    between atoms: _64  and  _66
REMARK   25  A    between atoms: _66  and  _67
REMARK   26  A    between atoms: _66  and  _69
REMARK   27  A    between atoms: _69  and  _70
REMARK   28  A    between atoms: _75  and  _77
REMARK   29  A    between atoms: _77  and  _78
REMARK   30  A    between atoms: _77  and  _80
REMARK   31  A    between atoms: _80  and  _81
REMARK   32  A    between atoms: _86  and  _87
REMARK   33  A    between atoms: _89  and  _91
REMARK   34  A    between atoms: _91  and  _92
REMARK   35  A    between atoms: _91  and  _94
REMARK   36  A    between atoms: _94  and  _95
REMARK   37  A    between atoms: _100  and  _102
REMARK   38  A    between atoms: _102  and  _103
REMARK   39  A    between atoms: _102  and  _105
REMARK   40  A    between atoms: _105  and  _106
REMARK   41  A    between atoms: _109  and  _111
REMARK   42  A    between atoms: _111  and  _112
REMARK   43  A    between atoms: _115  and  _117
REMARK   44  A    between atoms: _117  and  _118
REMARK   45  A    between atoms: _117  and  _120
REMARK   46  A    between atoms: _120  and  _121
REMARK   47  A    between atoms: _127  and  _129
REMARK   48  A    between atoms: _129  and  _130
REMARK   49  A    between atoms: _129  and  _132
REMARK   50  A    between atoms: _132  and  _133
REMARK   51  A    between atoms: _133  and  _134
REMARK   52  A    between atoms: _134  and  _135
REMARK   53  A    between atoms: _144  and  _146
REMARK   54  A    between atoms: _146  and  _147
REMARK   55  A    between atoms: _146  and  _149
REMARK   56  A    between atoms: _149  and  _150
REMARK   57  A    between atoms: _150  and  _151
REMARK   58  A    between atoms: _156  and  _158
REMARK   59  A    between atoms: _158  and  _159
REMARK   60  A    between atoms: _158  and  _161
REMARK   61  A    between atoms: _161  and  _162
REMARK   62  A    between atoms: _162  and  _163
REMARK   63  A    between atoms: _166  and  _168
REMARK   64  A    between atoms: _168  and  _169
REMARK   65  A    between atoms: _168  and  _171
REMARK   66  A    between atoms: _174  and  _176
REMARK   67  A    between atoms: _176  and  _177
REMARK   68  A    between atoms: _176  and  _179
REMARK   69  A    between atoms: _179  and  _180
REMARK   70  A    between atoms: _183  and  _185
REMARK   71  A    between atoms: _185  and  _186
REMARK   72  A    between atoms: _185  and  _188
REMARK   73  A    between atoms: _188  and  _189
REMARK   74  A    between atoms: _195  and  _197
REMARK   75  A    between atoms: _197  and  _198
REMARK   76  A    between atoms: _197  and  _200
REMARK   77  A    between atoms: _200  and  _201
REMARK   78  A    between atoms: _206  and  _208
REMARK   79  A    between atoms: _208  and  _209
REMARK   80  A    between atoms: _208  and  _211
REMARK   81  A    between atoms: _211  and  _212
REMARK   82  A    between atoms: _214  and  _216
REMARK   83  A    between atoms: _216  and  _217
REMARK   84  A    between atoms: _216  and  _219
REMARK   85  A    between atoms: _219  and  _220
REMARK   86  A    between atoms: _220  and  _221
REMARK   87  A    between atoms: _221  and  _222
REMARK   88  A    between atoms: _232  and  _233
REMARK   89  A    between atoms: _238  and  _240
REMARK   90  A    between atoms: _240  and  _241
REMARK   91  A    between atoms: _240  and  _243
REMARK   92  A    between atoms: _243  and  _244
REMARK   93  A    between atoms: _254  and  _256
REMARK   94  A    between atoms: _256  and  _257
REMARK   95  A    between atoms: _256  and  _259
REMARK   96  A    between atoms: _259  and  _260
REMARK   97  A    between atoms: _263  and  _265
REMARK   98  A    between atoms: _265  and  _266
REMARK   99  A    between atoms: _265  and  _268
REMARK  100  A    between atoms: _271  and  _273
REMARK  101  A    between atoms: _273  and  _274
REMARK  102  A    between atoms: _273  and  _276
REMARK  103  A    between atoms: _276  and  _277
REMARK  104  A    between atoms: _277  and  _278
REMARK  105  A    between atoms: _281  and  _283
REMARK  106  A    between atoms: _283  and  _284
REMARK  107  A    between atoms: _283  and  _286
REMARK  108  A    between atoms: _286  and  _287
REMARK  109  A    between atoms: _287  and  _288
REMARK  110  A    between atoms: _293  and  _295
REMARK  111  A    between atoms: _295  and  _296
REMARK  112  A    between atoms: _295  and  _298
REMARK  113  A    between atoms: _298  and  _299
REMARK  114  A    between atoms: _299  and  _300
REMARK  115  A    between atoms: _300  and  _301
REMARK  116  A    between atoms: _310  and  _312
REMARK  117  A    between atoms: _312  and  _313
REMARK  118  A    between atoms: _312  and  _315
REMARK  119  A    between atoms: _315  and  _316
REMARK  120  A    between atoms: _316  and  _317
REMARK  121  A    between atoms: _322  and  _324
REMARK  122  A    between atoms: _324  and  _325
REMARK  123  A    between atoms: _324  and  _327
REMARK  124  A    between atoms: _327  and  _328
REMARK                            x       y       z     vdW  Elec       q    Type
REMARK                         _______ _______ _______ _____ _____    ______ ____
ROOT
ATOM      1  CG  TYR A   1     -15.578   7.461 -18.875  0.00  0.00    -0.020 A 
ATOM      2  CD2 TYR A   1     -16.954   7.302 -19.026  0.00  0.00    -0.001 A 
ATOM      3  CE2 TYR A   1     -17.486   6.206 -19.699  0.00  0.00    +0.036 A 
ATOM      4  CZ  TYR A   1     -16.635   5.252 -20.228  0.00  0.00    +0.134 A 
ATOM      5  CE1 TYR A   1     -15.259   5.379 -20.091  0.00  0.00    +0.036 A 
ATOM      6  CD1 TYR A   1     -14.739   6.483 -19.412  0.00  0.00    -0.001 A 
ENDROOT
BRANCH   4   7
ATOM      7  OH  TYR A   1     -17.163   4.176 -20.893  0.00  0.00    -0.506 OA
ATOM      8  HH  TYR A   1     -16.429   3.591 -21.208  0.00  0.00    +0.292 HD
ENDBRANCH   4   7
BRANCH   1   9
ATOM      9  CB  TYR A   1     -15.005   8.692 -18.198  0.00  0.00    +0.051 C 
BRANCH   9  10
ATOM     10  CA  TYR A   1     -15.016   8.689 -16.663  0.00  0.00    +0.137 C 
BRANCH  10  11
ATOM     11  N   TYR A   1     -16.351   8.940 -16.144  0.00  0.00    -0.239 NA
ATOM     12  H   TYR A   1     -17.057   9.399 -16.754  0.00  0.00    +0.142 HD
ENDBRANCH  10  11
BRANCH  10  13
ATOM     13  C   TYR A   1     -14.173   9.861 -16.170  0.00  0.00    +0.224 C 
ATOM     14  O   TYR A   1     -14.225  10.947 -16.753  0.00  0.00    -0.287 OA
ENDBRANCH  10  13
ENDBRANCH   9  10
ENDBRANCH   1   9
TORSDOF 5
REMARK  Name = ../refined-set-2016/3m3c/3m3c_pocket.pdb
REMARK  124 active torsions:
REMARK  status: ('A' for Active; 'I' for Inactive)
REMARK    1  A    between atoms: _1  and  _3
REMARK    2  A    between atoms: _3  and  _4
REMARK    3  A    between atoms: _6  and  _8
REMARK    4  A    between atoms: _8  and  _9
REMARK    5  A    between atoms: _8  and  _11
REMARK    6  A    between atoms: _11  and  _12
REMARK    7  A    between atoms: _18  and  _19
REMARK    8  A    between atoms: _24  and  _26
REMARK    9  A    between atoms: _26  and  _27
REMARK   10  A    between atoms: _26  and  _29
REMARK   11  A    between atoms: _29  and  _30
REMARK   12  A    between atoms: _35  and  _37
REMARK   13  A    between atoms: _37  and  _38
REMARK   14  A    between atoms: _37  and  _40
REMARK   15  A    between atoms: _40  and  _41
REMARK   16  A    between atoms: _46  and  _48
REMARK   17  A    between atoms: _48  and  _49
REMARK   18  A    between atoms: _48  and  _51
REMARK   19  A    between atoms: _51  and  _52
REMARK   20  A    between atoms: _55  and  _57
REMARK   21  A    between atoms: _57  and  _58
REMARK   22  A    between atoms: _57  and  _60
REMARK   23  A    between atoms: _60  and  _61
REMARK   24  A    between atoms: _64  and  _66
REMARK   25  A    between atoms: _66  and  _67
REMARK   26  A    between atoms: _66  and  _69
REMARK   27  A    between atoms: _69  and  _70
REMARK   28  A    between atoms: _75  and  _77
REMARK   29  A    between atoms: _77  and  _78
REMARK   30  A    between atoms: _77  and  _80
REMARK   31  A    between atoms: _80  and  _81
REMARK   32  A    between atoms: _86  and  _87
REMARK   33  A    between atoms: _89  and  _91
REMARK   34  A    between atoms: _91  and  _92
REMARK   35  A    between atoms: _91  and  _94
REMARK   36  A    between atoms: _94  and  _95
REMARK   37  A    between atoms: _100  and  _102
REMARK   38  A    between atoms: _102  and  _103
REMARK   39  A    between atoms: _102  and  _105
REMARK   40  A    between atoms: _105  and  _106
REMARK   41  A    between atoms: _109  and  _111
REMARK   42  A    between atoms: _111  and  _112
REMARK   43  A    between atoms: _115  and  _117
REMARK   44  A    between atoms: _117  and  _118
REMARK   45  A    between atoms: _117  and  _120
REMARK   46  A    between atoms: _120  and  _121
REMARK   47  A    between atoms: _127  and  _129
REMARK   48  A    between atoms: _129  and  _130
REMARK   49  A    between atoms: _129  and  _132
REMARK   50  A    between atoms: _132  and  _133
REMARK   51  A    between atoms: _133  and  _134
REMARK   52  A    between atoms: _134  and  _135
REMARK   53  A    between atoms: _144  and  _146
REMARK   54  A    between atoms: _146  and  _147
REMARK   55  A    between atoms: _146  and  _149
REMARK   56  A    between atoms: _149  and  _150
REMARK   57  A    between atoms: _150  and  _151
REMARK   58  A    between atoms: _156  and  _158
REMARK   59  A    between atoms: _158  and  _159
REMARK   60  A    between atoms: _158  and  _161
REMARK   61  A    between atoms: _161  and  _162
REMARK   62  A    between atoms: _162  and  _163
REMARK   63  A    between atoms: _166  and  _168
REMARK   64  A    between atoms: _168  and  _169
REMARK   65  A    between atoms: _168  and  _171
REMARK   66  A    between atoms: _174  and  _176
REMARK   67  A    between atoms: _176  and  _177
REMARK   68  A    between atoms: _176  and  _179
REMARK   69  A    between atoms: _179  and  _180
REMARK   70  A    between atoms: _183  and  _185
REMARK   71  A    between atoms: _185  and  _186
REMARK   72  A    between atoms: _185  and  _188
REMARK   73  A    between atoms: _188  and  _189
REMARK   74  A    between atoms: _195  and  _197
REMARK   75  A    between atoms: _197  and  _198
REMARK   76  A    between atoms: _197  and  _200
REMARK   77  A    between atoms: _200  and  _201
REMARK   78  A    between atoms: _206  and  _208
REMARK   79  A    between atoms: _208  and  _209
REMARK   80  A    between atoms: _208  and  _211
REMARK   81  A    between atoms: _211  and  _212
REMARK   82  A    between atoms: _214  and  _216
REMARK   83  A    between atoms: _216  and  _217
REMARK   84  A    between atoms: _216  and  _219
REMARK   85  A    between atoms: _219  and  _220
REMARK   86  A    between atoms: _220  and  _221
REMARK   87  A    between atoms: _221  and  _222
REMARK   88  A    between atoms: _232  and  _233
REMARK   89  A    between atoms: _238  and  _240
REMARK   90  A    between atoms: _240  and  _241
REMARK   91  A    between atoms: _240  and  _243
REMARK   92  A    between atoms: _243  and  _244
REMARK   93  A    between atoms: _254  and  _256
REMARK   94  A    between atoms: _256  and  _257
REMARK   95  A    between atoms: _256  and  _259
REMARK   96  A    between atoms: _259  and  _260
REMARK   97  A    between atoms: _263  and  _265
REMARK   98  A    between atoms: _265  and  _266
REMARK   99  A    between atoms: _265  and  _268
REMARK  100  A    between atoms: _271  and  _273
REMARK  101  A    between atoms: _273  and  _274
REMARK  102  A    between atoms: _273  and  _276
REMARK  103  A    between atoms: _276  and  _277
REMARK  104  A    between atoms: _277  and  _278
REMARK  105  A    between atoms: _281  and  _283
REMARK  106  A    between atoms: _283  and  _284
REMARK  107  A    between atoms: _283  and  _286
REMARK  108  A    between atoms: _286  and  _287
REMARK  109  A    between atoms: _287  and  _288
REMARK  110  A    between atoms: _293  and  _295
REMARK  111  A    between atoms: _295  and  _296
REMARK  112  A    between atoms: _295  and  _298
REMARK  113  A    between atoms: _298  and  _299
REMARK  114  A    between atoms: _299  and  _300
REMARK  115  A    between atoms: _300  and  _301
REMARK  116  A    between atoms: _310  and  _312
REMARK  117  A    between atoms: _312  and  _313
REMARK  118  A    between atoms: _312  and  _315
REMARK  119  A    between atoms: _315  and  _316
REMARK  120  A    between atoms: _316  and  _317
REMARK  121  A    between atoms: _322  and  _324
REMARK  122  A    between atoms: _324  and  _325
REMARK  123  A    between atoms: _324  and  _327
REMARK  124  A    between atoms: _327  and  _328
REMARK                            x       y       z     vdW  Elec       q    Type
REMARK                         _______ _______ _______ _____ _____    ______ ____
ROOT
ATOM      1  C   ALA A   3      -6.411   6.315 -26.819  0.00  0.00    +0.241 C 
ATOM      2  N   PHE A   4      -5.924   5.135 -27.193  0.00  0.00    -0.297 N 
ATOM      3  H   PHE A   4      -6.302   4.267 -26.763  0.00  0.00    +0.150 HD
ATOM      4  O   ALA A   3      -5.986   7.386 -27.258  0.00  0.00    -0.273 OA
ENDROOT
BRANCH   1   5
ATOM      5  CA  ALA A   3      -7.539   6.276 -25.794  0.00  0.00    +0.149 C 
ATOM      6  CB  ALA A   3      -8.840   6.795 -26.428  0.00  0.00    +0.031 C 
BRANCH   5   9
ATOM      7  C   ILE A   2      -7.222   6.420 -23.399  0.00  0.00    +0.241 C 
ATOM      8  O   ILE A   2      -7.385   5.210 -23.263  0.00  0.00    -0.273 OA
ATOM      9  N   ALA A   3      -7.260   7.023 -24.582  0.00  0.00    -0.297 N 
ATOM     10  H   ALA A   3      -7.087   8.047 -24.640  0.00  0.00    +0.150 HD
BRANCH   7  11
ATOM     11  CA  ILE A   2      -6.962   7.309 -22.185  0.00  0.00    +0.148 C 
BRANCH  11  13
ATOM     12  C   HIS A   1      -8.978   8.350 -21.279  0.00  0.00    +0.239 C 
ATOM     13  N   ILE A   2      -8.179   7.292 -21.379  0.00  0.00    -0.297 N 
ATOM     14  H   ILE A   2      -8.430   6.423 -20.866  0.00  0.00    +0.150 HD
ATOM     15  O   HIS A   1      -8.731   9.435 -21.813  0.00  0.00    -0.274 OA
BRANCH  12  16
ATOM     16  CA  HIS A   1     -10.228   8.178 -20.416  0.00  0.00    +0.151 C 
BRANCH  16  17
ATOM     17  N   HIS A   1     -10.056   9.102 -19.303  0.00  0.00    -0.238 NA
ATOM     18  H   HIS A   1      -9.967  10.115 -19.521  0.00  0.00    +0.142 HD
ENDBRANCH  16  17
BRANCH  16  19
ATOM     19  CB  HIS A   1     -11.495   8.576 -21.194  0.00  0.00    +0.074 C 
BRANCH  19  20
ATOM     20  CG  HIS A   1     -11.703   7.839 -22.486  0.00  0.00    +0.082 A 
ATOM     21  ND1 HIS A   1     -12.044   6.504 -22.544  0.00  0.00    -0.227 NA
ATOM     22  CE1 HIS A   1     -12.234   6.152 -23.804  0.00  0.00    +0.199 A 
ATOM     23  NE2 HIS A   1     -12.025   7.210 -24.569  0.00  0.00    -0.221 NA
ATOM     24  CD2 HIS A   1     -11.689   8.278 -23.770  0.00  0.00    +0.115 A 
ENDBRANCH  19  20
ENDBRANCH  16  19
ENDBRANCH  12  16
ENDBRANCH  11  13
BRANCH  11  25
ATOM     25  CB  ILE A   2      -5.755   6.739 -21.412  0.00  0.00    +0.027 C 
ATOM     26  CG2 ILE A   2      -4.490   6.864 -22.274  0.00  0.00    +0.002 C 
BRANCH  25  27
ATOM     27  CG1 ILE A   2      -5.575   7.487 -20.084  0.00  0.00    +0.002 C 
ATOM     28  CD1 ILE A   2      -4.434   6.936 -19.206  0.00  0.00    +0.000 C 
ENDBRANCH  25  27
ENDBRANCH  11  25
ENDBRANCH   7  11
ENDBRANCH   5   9
ENDBRANCH   1   5
BRANCH   2  29
ATOM     29  CA  PHE A   4      -4.871   5.037 -28.194  0.00  0.00    +0.153 C 
BRANCH  29  30
ATOM     30  C   PHE A   4      -5.600   4.784 -29.504  0.00  0.00    +0.241 C 
ATOM     31  O   PHE A   4      -6.339   3.806 -29.634  0.00  0.00    -0.273 OA
ATOM     32  N   ARG A   5      -5.404   5.687 -30.459  0.00  0.00    -0.298 N 
ATOM     33  H   ARG A   5      -4.751   6.475 -30.275  0.00  0.00    +0.150 HD
BRANCH  32  34
ATOM     34  CA  ARG A   5      -6.068   5.615 -31.752  0.00  0.00    +0.137 C 
BRANCH  34  35
ATOM     35  C   ARG A   5      -5.030   5.685 -32.880  0.00  0.00    +0.227 C 
ATOM     36  O   ARG A   5      -4.673   6.764 -33.354  0.00  0.00    -0.286 OA
ENDBRANCH  34  35
BRANCH  34  37
ATOM     37  CB  ARG A   5      -7.074   6.775 -31.843  0.00  0.00    +0.031 C 
BRANCH  37  38
ATOM     38  CG  ARG A   5      -8.181   6.597 -32.870  0.00  0.00    +0.045 C 
BRANCH  38  39
ATOM     39  CD  ARG A   5      -9.220   7.726 -32.775  0.00  0.00    +0.174 C 
BRANCH  39  40
ATOM     40  NE  ARG A   5     -10.050   7.642 -31.571  0.00  0.00    -0.265 N 
ATOM     41  HE  ARG A   5      -9.896   6.837 -30.931  0.00  0.00    +0.259 HD
ATOM     42  CZ  ARG A   5     -10.990   8.529 -31.240  0.00  0.00    +0.342 C 
ATOM     43  NH2 ARG A   5     -11.684   8.377 -30.117  0.00  0.00    -0.292 N 
ATOM     44 HH21 ARG A   5     -11.495   7.566 -29.495  0.00  0.00    +0.255 HD
ATOM     45 HH22 ARG A   5     -12.416   9.069 -29.861  0.00  0.00    +0.255 HD
ATOM     46  NH1 ARG A   5     -11.231   9.580 -32.022  0.00  0.00    -0.292 N 
ATOM     47 HH11 ARG A   5     -11.965  10.267 -31.758  0.00  0.00    +0.255 HD
ATOM     48 HH12 ARG A   5     -10.685   9.713 -32.897  0.00  0.00    +0.255 HD
ENDBRANCH  39  40
ENDBRANCH  38  39
ENDBRANCH  37  38
ENDBRANCH  34  37
ENDBRANCH  32  34
ENDBRANCH  29  30
BRANCH  29  49
ATOM     49  CB  PHE A   4      -3.915   3.888 -27.862  0.00  0.00    +0.055 C 
BRANCH  49  50
ATOM     50  CG  PHE A   4      -3.266   4.020 -26.514  0.00  0.00    -0.020 A 
ATOM     51  CD2 PHE A   4      -3.913   3.565 -25.367  0.00  0.00    -0.004 A 
ATOM     52  CE2 PHE A   4      -3.340   3.736 -24.107  0.00  0.00    -0.000 A 
ATOM     53  CZ  PHE A   4      -2.105   4.366 -23.991  0.00  0.00    -0.000 A 
ATOM     54  CE1 PHE A   4      -1.447   4.821 -25.129  0.00  0.00    -0.000 A 
ATOM     55  CD1 PHE A   4      -2.030   4.645 -26.383  0.00  0.00    -0.004 A 
ENDBRANCH  49  50
ENDBRANCH  29  49
ENDBRANCH   2  29
TORSDOF 20
REMARK  Name = ../refined-set-2016/3m3c/3m3c_pocket.pdb
REMARK  124 active torsions:
REMARK  status: ('A' for Active; 'I' for Inactive)
REMARK    1  A    between atoms: _1  and  _3
REMARK    2  A    between atoms: _3  and  _4
REMARK    3  A    between atoms: _6  and  _8
REMARK    4  A    between atoms: _8  and  _9
REMARK    5  A    between atoms: _8  and  _11
REMARK    6  A    between atoms: _11  and  _12
REMARK    7  A    between atoms: _18  and  _19
REMARK    8  A    between atoms: _24  and  _26
REMARK    9  A    between atoms: _26  and  _27
REMARK   10  A    between atoms: _26  and  _29
REMARK   11  A    between atoms: _29  and  _30
REMARK   12  A    between atoms: _35  and  _37
REMARK   13  A    between atoms: _37  and  _38
REMARK   14  A    between atoms: _37  and  _40
REMARK   15  A    between atoms: _40  and  _41
REMARK   16  A    between atoms: _46  and  _48
REMARK   17  A    between atoms: _48  and  _49
REMARK   18  A    between atoms: _48  and  _51
REMARK   19  A    between atoms: _51  and  _52
REMARK   20  A    between atoms: _55  and  _57
REMARK   21  A    between atoms: _57  and  _58
REMARK   22  A    between atoms: _57  and  _60
REMARK   23  A    between atoms: _60  and  _61
REMARK   24  A    between atoms: _64  and  _66
REMARK   25  A    between atoms: _66  and  _67
REMARK   26  A    between atoms: _66  and  _69
REMARK   27  A    between atoms: _69  and  _70
REMARK   28  A    between atoms: _75  and  _77
REMARK   29  A    between atoms: _77  and  _78
REMARK   30  A    between atoms: _77  and  _80
REMARK   31  A    between atoms: _80  and  _81
REMARK   32  A    between atoms: _86  and  _87
REMARK   33  A    between atoms: _89  and  _91
REMARK   34  A    between atoms: _91  and  _92
REMARK   35  A    between atoms: _91  and  _94
REMARK   36  A    between atoms: _94  and  _95
REMARK   37  A    between atoms: _100  and  _102
REMARK   38  A    between atoms: _102  and  _103
REMARK   39  A    between atoms: _102  and  _105
REMARK   40  A    between atoms: _105  and  _106
REMARK   41  A    between atoms: _109  and  _111
REMARK   42  A    between atoms: _111  and  _112
REMARK   43  A    between atoms: _115  and  _117
REMARK   44  A    between atoms: _117  and  _118
REMARK   45  A    between atoms: _117  and  _120
REMARK   46  A    between atoms: _120  and  _121
REMARK   47  A    between atoms: _127  and  _129
REMARK   48  A    between atoms: _129  and  _130
REMARK   49  A    between atoms: _129  and  _132
REMARK   50  A    between atoms: _132  and  _133
REMARK   51  A    between atoms: _133  and  _134
REMARK   52  A    between atoms: _134  and  _135
REMARK   53  A    between atoms: _144  and  _146
REMARK   54  A    between atoms: _146  and  _147
REMARK   55  A    between atoms: _146  and  _149
REMARK   56  A    between atoms: _149  and  _150
REMARK   57  A    between atoms: _150  and  _151
REMARK   58  A    between atoms: _156  and  _158
REMARK   59  A    between atoms: _158  and  _159
REMARK   60  A    between atoms: _158  and  _161
REMARK   61  A    between atoms: _161  and  _162
REMARK   62  A    between atoms: _162  and  _163
REMARK   63  A    between atoms: _166  and  _168
REMARK   64  A    between atoms: _168  and  _169
REMARK   65  A    between atoms: _168  and  _171
REMARK   66  A    between atoms: _174  and  _176
REMARK   67  A    between atoms: _176  and  _177
REMARK   68  A    between atoms: _176  and  _179
REMARK   69  A    between atoms: _179  and  _180
REMARK   70  A    between atoms: _183  and  _185
REMARK   71  A    between atoms: _185  and  _186
REMARK   72  A    between atoms: _185  and  _188
REMARK   73  A    between atoms: _188  and  _189
REMARK   74  A    between atoms: _195  and  _197
REMARK   75  A    between atoms: _197  and  _198
REMARK   76  A    between atoms: _197  and  _200
REMARK   77  A    between atoms: _200  and  _201
REMARK   78  A    between atoms: _206  and  _208
REMARK   79  A    between atoms: _208  and  _209
REMARK   80  A    between atoms: _208  and  _211
REMARK   81  A    between atoms: _211  and  _212
REMARK   82  A    between atoms: _214  and  _216
REMARK   83  A    between atoms: _216  and  _217
REMARK   84  A    between atoms: _216  and  _219
REMARK   85  A    between atoms: _219  and  _220
REMARK   86  A    between atoms: _220  and  _221
REMARK   87  A    between atoms: _221  and  _222
REMARK   88  A    between atoms: _232  and  _233
REMARK   89  A    between atoms: _238  and  _240
REMARK   90  A    between atoms: _240  and  _241
REMARK   91  A    between atoms: _240  and  _243
REMARK   92  A    between atoms: _243  and  _244
REMARK   93  A    between atoms: _254  and  _256
REMARK   94  A    between atoms: _256  and  _257
REMARK   95  A    between atoms: _256  and  _259
REMARK   96  A    between atoms: _259  and  _260
REMARK   97  A    between atoms: _263  and  _265
REMARK   98  A    between atoms: _265  and  _266
REMARK   99  A    between atoms: _265  and  _268
REMARK  100  A    between atoms: _271  and  _273
REMARK  101  A    between atoms: _273  and  _274
REMARK  102  A    between atoms: _273  and  _276
REMARK  103  A    between atoms: _276  and  _277
REMARK  104  A    between atoms: _277  and  _278
REMARK  105  A    between atoms: _281  and  _283
REMARK  106  A    between atoms: _283  and  _284
REMARK  107  A    between atoms: _283  and  _286
REMARK  108  A    between atoms: _286  and  _287
REMARK  109  A    between atoms: _287  and  _288
REMARK  110  A    between atoms: _293  and  _295
REMARK  111  A    between atoms: _295  and  _296
REMARK  112  A    between atoms: _295  and  _298
REMARK  113  A    between atoms: _298  and  _299
REMARK  114  A    between atoms: _299  and  _300
REMARK  115  A    between atoms: _300  and  _301
REMARK  116  A    between atoms: _310  and  _312
REMARK  117  A    between atoms: _312  and  _313
REMARK  118  A    between atoms: _312  and  _315
REMARK  119  A    between atoms: _315  and  _316
REMARK  120  A    between atoms: _316  and  _317
REMARK  121  A    between atoms: _322  and  _324
REMARK  122  A    between atoms: _324  and  _325
REMARK  123  A    between atoms: _324  and  _327
REMARK  124  A    between atoms: _327  and  _328
REMARK                            x       y       z     vdW  Elec       q    Type
REMARK                         _______ _______ _______ _____ _____    ______ ____
ROOT
ATOM      1  C   GLN A   1      -5.532   6.941 -37.467  0.00  0.00    +0.238 C 
ATOM      2  N   GLU A   2      -5.378   7.603 -36.324  0.00  0.00    -0.298 N 
ATOM      3  H   GLU A   2      -5.363   7.075 -35.428  0.00  0.00    +0.150 HD
ATOM      4  O   GLN A   1      -5.587   7.502 -38.561  0.00  0.00    -0.274 OA
ENDROOT
BRANCH   1   5
ATOM      5  CA  GLN A   1      -5.654   5.420 -37.372  0.00  0.00    +0.145 C 
BRANCH   5   6
ATOM      6  N   GLN A   1      -5.191   4.893 -36.087  0.00  0.00    -0.238 NA
ATOM      7  H   GLN A   1      -5.867   4.408 -35.464  0.00  0.00    +0.142 HD
ENDBRANCH   5   6
BRANCH   5   8
ATOM      8  CB  GLN A   1      -7.109   4.998 -37.634  0.00  0.00    +0.036 C 
BRANCH   8   9
ATOM      9  CG  GLN A   1      -8.119   5.570 -36.653  0.00  0.00    +0.087 C 
BRANCH   9  10
ATOM     10  CD  GLN A   1      -9.515   5.004 -36.842  0.00  0.00    +0.219 C 
ATOM     11  OE1 GLN A   1     -10.485   5.518 -36.280  0.00  0.00    -0.275 OA
ATOM     12  NE2 GLN A   1      -9.626   3.937 -37.629  0.00  0.00    -0.329 N 
ATOM     13 HE21 GLN A   1     -10.558   3.504 -37.790  0.00  0.00    +0.145 HD
ATOM     14 HE22 GLN A   1      -8.781   3.536 -38.083  0.00  0.00    +0.145 HD
ENDBRANCH   9  10
ENDBRANCH   8   9
ENDBRANCH   5   8
ENDBRANCH   1   5
BRANCH   2  15
ATOM     15  CA  GLU A   2      -5.230   9.055 -36.299  0.00  0.00    +0.137 C 
BRANCH  15  16
ATOM     16  C   GLU A   2      -3.879   9.432 -35.703  0.00  0.00    +0.227 C 
ATOM     17  O   GLU A   2      -3.553  10.610 -35.583  0.00  0.00    -0.286 OA
ENDBRANCH  15  16
BRANCH  15  18
ATOM     18  CB  GLU A   2      -6.349   9.712 -35.481  0.00  0.00    +0.039 C 
BRANCH  18  19
ATOM     19  CG  GLU A   2      -7.708   9.751 -36.179  0.00  0.00    +0.116 C 
BRANCH  19  20
ATOM     20  CD  GLU A   2      -8.650  10.770 -35.557  0.00  0.00    +0.365 C 
ATOM     21  OE2 GLU A   2      -9.714  10.368 -35.043  0.00  0.00    -0.246 OA
ATOM     22  OE1 GLU A   2      -8.326  11.977 -35.579  0.00  0.00    -0.246 OA
ENDBRANCH  19  20
ENDBRANCH  18  19
ENDBRANCH  15  18
ENDBRANCH   2  15
TORSDOF 10
REMARK  Name = ../refined-set-2016/3m3c/3m3c_pocket.pdb
REMARK  124 active torsions:
REMARK  status: ('A' for Active; 'I' for Inactive)
REMARK    1  A    between atoms: _1  and  _3
REMARK    2  A    between atoms: _3  and  _4
REMARK    3  A    between atoms: _6  and  _8
REMARK    4  A    between atoms: _8  and  _9
REMARK    5  A    between atoms: _8  and  _11
REMARK    6  A    between atoms: _11  and  _12
REMARK    7  A    between atoms: _18  and  _19
REMARK    8  A    between atoms: _24  and  _26
REMARK    9  A    between atoms: _26  and  _27
REMARK   10  A    between atoms: _26  and  _29
REMARK   11  A    between atoms: _29  and  _30
REMARK   12  A    between atoms: _35  and  _37
REMARK   13  A    between atoms: _37  and  _38
REMARK   14  A    between atoms: _37  and  _40
REMARK   15  A    between atoms: _40  and  _41
REMARK   16  A    between atoms: _46  and  _48
REMARK   17  A    between atoms: _48  and  _49
REMARK   18  A    between atoms: _48  and  _51
REMARK   19  A    between atoms: _51  and  _52
REMARK   20  A    between atoms: _55  and  _57
REMARK   21  A    between atoms: _57  and  _58
REMARK   22  A    between atoms: _57  and  _60
REMARK   23  A    between atoms: _60  and  _61
REMARK   24  A    between atoms: _64  and  _66
REMARK   25  A    between atoms: _66  and  _67
REMARK   26  A    between atoms: _66  and  _69
REMARK   27  A    between atoms: _69  and  _70
REMARK   28  A    between atoms: _75  and  _77
REMARK   29  A    between atoms: _77  and  _78
REMARK   30  A    between atoms: _77  and  _80
REMARK   31  A    between atoms: _80  and  _81
REMARK   32  A    between atoms: _86  and  _87
REMARK   33  A    between atoms: _89  and  _91
REMARK   34  A    between atoms: _91  and  _92
REMARK   35  A    between atoms: _91  and  _94
REMARK   36  A    between atoms: _94  and  _95
REMARK   37  A    between atoms: _100  and  _102
REMARK   38  A    between atoms: _102  and  _103
REMARK   39  A    between atoms: _102  and  _105
REMARK   40  A    between atoms: _105  and  _106
REMARK   41  A    between atoms: _109  and  _111
REMARK   42  A    between atoms: _111  and  _112
REMARK   43  A    between atoms: _115  and  _117
REMARK   44  A    between atoms: _117  and  _118
REMARK   45  A    between atoms: _117  and  _120
REMARK   46  A    between atoms: _120  and  _121
REMARK   47  A    between atoms: _127  and  _129
REMARK   48  A    between atoms: _129  and  _130
REMARK   49  A    between atoms: _129  and  _132
REMARK   50  A    between atoms: _132  and  _133
REMARK   51  A    between atoms: _133  and  _134
REMARK   52  A    between atoms: _134  and  _135
REMARK   53  A    between atoms: _144  and  _146
REMARK   54  A    between atoms: _146  and  _147
REMARK   55  A    between atoms: _146  and  _149
REMARK   56  A    between atoms: _149  and  _150
REMARK   57  A    between atoms: _150  and  _151
REMARK   58  A    between atoms: _156  and  _158
REMARK   59  A    between atoms: _158  and  _159
REMARK   60  A    between atoms: _158  and  _161
REMARK   61  A    between atoms: _161  and  _162
REMARK   62  A    between atoms: _162  and  _163
REMARK   63  A    between atoms: _166  and  _168
REMARK   64  A    between atoms: _168  and  _169
REMARK   65  A    between atoms: _168  and  _171
REMARK   66  A    between atoms: _174  and  _176
REMARK   67  A    between atoms: _176  and  _177
REMARK   68  A    between atoms: _176  and  _179
REMARK   69  A    between atoms: _179  and  _180
REMARK   70  A    between atoms: _183  and  _185
REMARK   71  A    between atoms: _185  and  _186
REMARK   72  A    between atoms: _185  and  _188
REMARK   73  A    between atoms: _188  and  _189
REMARK   74  A    between atoms: _195  and  _197
REMARK   75  A    between atoms: _197  and  _198
REMARK   76  A    between atoms: _197  and  _200
REMARK   77  A    between atoms: _200  and  _201
REMARK   78  A    between atoms: _206  and  _208
REMARK   79  A    between atoms: _208  and  _209
REMARK   80  A    between atoms: _208  and  _211
REMARK   81  A    between atoms: _211  and  _212
REMARK   82  A    between atoms: _214  and  _216
REMARK   83  A    between atoms: _216  and  _217
REMARK   84  A    between atoms: _216  and  _219
REMARK   85  A    between atoms: _219  and  _220
REMARK   86  A    between atoms: _220  and  _221
REMARK   87  A    between atoms: _221  and  _222
REMARK   88  A    between atoms: _232  and  _233
REMARK   89  A    between atoms: _238  and  _240
REMARK   90  A    between atoms: _240  and  _241
REMARK   91  A    between atoms: _240  and  _243
REMARK   92  A    between atoms: _243  and  _244
REMARK   93  A    between atoms: _254  and  _256
REMARK   94  A    between atoms: _256  and  _257
REMARK   95  A    between atoms: _256  and  _259
REMARK   96  A    between atoms: _259  and  _260
REMARK   97  A    between atoms: _263  and  _265
REMARK   98  A    between atoms: _265  and  _266
REMARK   99  A    between atoms: _265  and  _268
REMARK  100  A    between atoms: _271  and  _273
REMARK  101  A    between atoms: _273  and  _274
REMARK  102  A    between atoms: _273  and  _276
REMARK  103  A    between atoms: _276  and  _277
REMARK  104  A    between atoms: _277  and  _278
REMARK  105  A    between atoms: _281  and  _283
REMARK  106  A    between atoms: _283  and  _284
REMARK  107  A    between atoms: _283  and  _286
REMARK  108  A    between atoms: _286  and  _287
REMARK  109  A    between atoms: _287  and  _288
REMARK  110  A    between atoms: _293  and  _295
REMARK  111  A    between atoms: _295  and  _296
REMARK  112  A    between atoms: _295  and  _298
REMARK  113  A    between atoms: _298  and  _299
REMARK  114  A    between atoms: _299  and  _300
REMARK  115  A    between atoms: _300  and  _301
REMARK  116  A    between atoms: _310  and  _312
REMARK  117  A    between atoms: _312  and  _313
REMARK  118  A    between atoms: _312  and  _315
REMARK  119  A    between atoms: _315  and  _316
REMARK  120  A    between atoms: _316  and  _317
REMARK  121  A    between atoms: _322  and  _324
REMARK  122  A    between atoms: _324  and  _325
REMARK  123  A    between atoms: _324  and  _327
REMARK  124  A    between atoms: _327  and  _328
REMARK                            x       y       z     vdW  Elec       q    Type
REMARK                         _______ _______ _______ _____ _____    ______ ____
ROOT
ATOM      1  CA  VAL A   1      -2.855  10.148 -31.439  0.00  0.00    +0.133 C 
ENDROOT
BRANCH   1   2
ATOM      2  CB  VAL A   1      -3.922  11.272 -31.611  0.00  0.00    +0.023 C 
ATOM      3  CG2 VAL A   1      -5.297  10.652 -31.852  0.00  0.00    +0.002 C 
ATOM      4  CG1 VAL A   1      -3.545  12.209 -32.751  0.00  0.00    +0.002 C 
ENDBRANCH   1   2
BRANCH   1   5
ATOM      5  N   VAL A   1      -2.744   9.307 -32.625  0.00  0.00    -0.239 NA
ATOM      6  H   VAL A   1      -3.388   8.499 -32.747  0.00  0.00    +0.142 HD
ENDBRANCH   1   5
BRANCH   1   7
ATOM      7  C   VAL A   1      -3.261   9.358 -30.199  0.00  0.00    +0.224 C 
ATOM      8  O   VAL A   1      -3.789   8.248 -30.288  0.00  0.00    -0.287 OA
ENDBRANCH   1   7
TORSDOF 3
REMARK  Name = ../refined-set-2016/3m3c/3m3c_pocket.pdb
REMARK  124 active torsions:
REMARK  status: ('A' for Active; 'I' for Inactive)
REMARK    1  A    between atoms: _1  and  _3
REMARK    2  A    between atoms: _3  and  _4
REMARK    3  A    between atoms: _6  and  _8
REMARK    4  A    between atoms: _8  and  _9
REMARK    5  A    between atoms: _8  and  _11
REMARK    6  A    between atoms: _11  and  _12
REMARK    7  A    between atoms: _18  and  _19
REMARK    8  A    between atoms: _24  and  _26
REMARK    9  A    between atoms: _26  and  _27
REMARK   10  A    between atoms: _26  and  _29
REMARK   11  A    between atoms: _29  and  _30
REMARK   12  A    between atoms: _35  and  _37
REMARK   13  A    between atoms: _37  and  _38
REMARK   14  A    between atoms: _37  and  _40
REMARK   15  A    between atoms: _40  and  _41
REMARK   16  A    between atoms: _46  and  _48
REMARK   17  A    between atoms: _48  and  _49
REMARK   18  A    between atoms: _48  and  _51
REMARK   19  A    between atoms: _51  and  _52
REMARK   20  A    between atoms: _55  and  _57
REMARK   21  A    between atoms: _57  and  _58
REMARK   22  A    between atoms: _57  and  _60
REMARK   23  A    between atoms: _60  and  _61
REMARK   24  A    between atoms: _64  and  _66
REMARK   25  A    between atoms: _66  and  _67
REMARK   26  A    between atoms: _66  and  _69
REMARK   27  A    between atoms: _69  and  _70
REMARK   28  A    between atoms: _75  and  _77
REMARK   29  A    between atoms: _77  and  _78
REMARK   30  A    between atoms: _77  and  _80
REMARK   31  A    between atoms: _80  and  _81
REMARK   32  A    between atoms: _86  and  _87
REMARK   33  A    between atoms: _89  and  _91
REMARK   34  A    between atoms: _91  and  _92
REMARK   35  A    between atoms: _91  and  _94
REMARK   36  A    between atoms: _94  and  _95
REMARK   37  A    between atoms: _100  and  _102
REMARK   38  A    between atoms: _102  and  _103
REMARK   39  A    between atoms: _102  and  _105
REMARK   40  A    between atoms: _105  and  _106
REMARK   41  A    between atoms: _109  and  _111
REMARK   42  A    between atoms: _111  and  _112
REMARK   43  A    between atoms: _115  and  _117
REMARK   44  A    between atoms: _117  and  _118
REMARK   45  A    between atoms: _117  and  _120
REMARK   46  A    between atoms: _120  and  _121
REMARK   47  A    between atoms: _127  and  _129
REMARK   48  A    between atoms: _129  and  _130
REMARK   49  A    between atoms: _129  and  _132
REMARK   50  A    between atoms: _132  and  _133
REMARK   51  A    between atoms: _133  and  _134
REMARK   52  A    between atoms: _134  and  _135
REMARK   53  A    between atoms: _144  and  _146
REMARK   54  A    between atoms: _146  and  _147
REMARK   55  A    between atoms: _146  and  _149
REMARK   56  A    between atoms: _149  and  _150
REMARK   57  A    between atoms: _150  and  _151
REMARK   58  A    between atoms: _156  and  _158
REMARK   59  A    between atoms: _158  and  _159
REMARK   60  A    between atoms: _158  and  _161
REMARK   61  A    between atoms: _161  and  _162
REMARK   62  A    between atoms: _162  and  _163
REMARK   63  A    between atoms: _166  and  _168
REMARK   64  A    between atoms: _168  and  _169
REMARK   65  A    between atoms: _168  and  _171
REMARK   66  A    between atoms: _174  and  _176
REMARK   67  A    between atoms: _176  and  _177
REMARK   68  A    between atoms: _176  and  _179
REMARK   69  A    between atoms: _179  and  _180
REMARK   70  A    between atoms: _183  and  _185
REMARK   71  A    between atoms: _185  and  _186
REMARK   72  A    between atoms: _185  and  _188
REMARK   73  A    between atoms: _188  and  _189
REMARK   74  A    between atoms: _195  and  _197
REMARK   75  A    between atoms: _197  and  _198
REMARK   76  A    between atoms: _197  and  _200
REMARK   77  A    between atoms: _200  and  _201
REMARK   78  A    between atoms: _206  and  _208
REMARK   79  A    between atoms: _208  and  _209
REMARK   80  A    between atoms: _208  and  _211
REMARK   81  A    between atoms: _211  and  _212
REMARK   82  A    between atoms: _214  and  _216
REMARK   83  A    between atoms: _216  and  _217
REMARK   84  A    between atoms: _216  and  _219
REMARK   85  A    between atoms: _219  and  _220
REMARK   86  A    between atoms: _220  and  _221
REMARK   87  A    between atoms: _221  and  _222
REMARK   88  A    between atoms: _232  and  _233
REMARK   89  A    between atoms: _238  and  _240
REMARK   90  A    between atoms: _240  and  _241
REMARK   91  A    between atoms: _240  and  _243
REMARK   92  A    between atoms: _243  and  _244
REMARK   93  A    between atoms: _254  and  _256
REMARK   94  A    between atoms: _256  and  _257
REMARK   95  A    between atoms: _256  and  _259
REMARK   96  A    between atoms: _259  and  _260
REMARK   97  A    between atoms: _263  and  _265
REMARK   98  A    between atoms: _265  and  _266
REMARK   99  A    between atoms: _265  and  _268
REMARK  100  A    between atoms: _271  and  _273
REMARK  101  A    between atoms: _273  and  _274
REMARK  102  A    between atoms: _273  and  _276
REMARK  103  A    between atoms: _276  and  _277
REMARK  104  A    between atoms: _277  and  _278
REMARK  105  A    between atoms: _281  and  _283
REMARK  106  A    between atoms: _283  and  _284
REMARK  107  A    between atoms: _283  and  _286
REMARK  108  A    between atoms: _286  and  _287
REMARK  109  A    between atoms: _287  and  _288
REMARK  110  A    between atoms: _293  and  _295
REMARK  111  A    between atoms: _295  and  _296
REMARK  112  A    between atoms: _295  and  _298
REMARK  113  A    between atoms: _298  and  _299
REMARK  114  A    between atoms: _299  and  _300
REMARK  115  A    between atoms: _300  and  _301
REMARK  116  A    between atoms: _310  and  _312
REMARK  117  A    between atoms: _312  and  _313
REMARK  118  A    between atoms: _312  and  _315
REMARK  119  A    between atoms: _315  and  _316
REMARK  120  A    between atoms: _316  and  _317
REMARK  121  A    between atoms: _322  and  _324
REMARK  122  A    between atoms: _324  and  _325
REMARK  123  A    between atoms: _324  and  _327
REMARK  124  A    between atoms: _327  and  _328
REMARK                            x       y       z     vdW  Elec       q    Type
REMARK                         _______ _______ _______ _____ _____    ______ ____
ROOT
ATOM      1  CA  ASN A   3     -10.975  13.017 -21.970  0.00  0.00    +0.158 C 
ENDROOT
BRANCH   1   3
ATOM      2  C   PHE A   2      -8.704  12.887 -22.794  0.00  0.00    +0.241 C 
ATOM      3  N   ASN A   3      -9.704  12.322 -22.128  0.00  0.00    -0.297 N 
ATOM      4  H   ASN A   3      -9.579  11.375 -21.716  0.00  0.00    +0.150 HD
ATOM      5  O   PHE A   2      -8.791  14.012 -23.293  0.00  0.00    -0.273 OA
BRANCH   2   6
ATOM      6  CA  PHE A   2      -7.418  12.071 -22.930  0.00  0.00    +0.153 C 
BRANCH   6   8
ATOM      7  C   ILE A   1      -6.878  10.871 -24.995  0.00  0.00    +0.238 C 
ATOM      8  N   PHE A   2      -7.100  12.019 -24.355  0.00  0.00    -0.297 N 
ATOM      9  H   PHE A   2      -7.045  12.910 -24.889  0.00  0.00    +0.150 HD
ATOM     10  O   ILE A   1      -6.891   9.771 -24.440  0.00  0.00    -0.274 OA
BRANCH   7  11
ATOM     11  CA  ILE A   1      -6.601  10.980 -26.486  0.00  0.00    +0.145 C 
BRANCH  11  12
ATOM     12  CB  ILE A   1      -7.922  10.697 -27.261  0.00  0.00    +0.025 C 
ATOM     13  CG2 ILE A   1      -9.097  11.465 -26.630  0.00  0.00    +0.002 C 
BRANCH  12  14
ATOM     14  CG1 ILE A   1      -7.734  11.053 -28.740  0.00  0.00    +0.002 C 
ATOM     15  CD1 ILE A   1      -8.757  10.412 -29.666  0.00  0.00    +0.000 C 
ENDBRANCH  12  14
ENDBRANCH  11  12
BRANCH  11  16
ATOM     16  N   ILE A   1      -5.564  10.056 -26.931  0.00  0.00    -0.238 NA
ATOM     17  H   ILE A   1      -5.784   9.041 -26.979  0.00  0.00    +0.142 HD
ENDBRANCH  11  16
ENDBRANCH   7  11
ENDBRANCH   6   8
BRANCH   6  18
ATOM     18  CB  PHE A   2      -6.289  12.742 -22.137  0.00  0.00    +0.055 C 
BRANCH  18  19
ATOM     19  CG  PHE A   2      -4.948  12.090 -22.321  0.00  0.00    -0.020 A 
ATOM     20  CD2 PHE A   2      -4.512  11.106 -21.440  0.00  0.00    -0.004 A 
ATOM     21  CE2 PHE A   2      -3.277  10.477 -21.625  0.00  0.00    -0.000 A 
ATOM     22  CZ  PHE A   2      -2.473  10.838 -22.700  0.00  0.00    -0.000 A 
ATOM     23  CE1 PHE A   2      -2.902  11.822 -23.586  0.00  0.00    -0.000 A 
ATOM     24  CD1 PHE A   2      -4.130  12.440 -23.394  0.00  0.00    -0.004 A 
ENDBRANCH  18  19
ENDBRANCH   6  18
ENDBRANCH   2   6
ENDBRANCH   1   3
BRANCH   1  25
ATOM     25  C   ASN A   3     -11.692  12.526 -20.716  0.00  0.00    +0.241 C 
ATOM     26  O   ASN A   3     -11.222  11.610 -20.037  0.00  0.00    -0.273 OA
ATOM     27  N   SER A   4     -12.823  13.155 -20.415  0.00  0.00    -0.295 N 
ATOM     28  H   SER A   4     -13.143  13.929 -21.031  0.00  0.00    +0.150 HD
BRANCH  27  29
ATOM     29  CA  SER A   4     -13.634  12.803 -19.254  0.00  0.00    +0.178 C 
BRANCH  29  30
ATOM     30  C   SER A   4     -15.101  12.814 -19.670  0.00  0.00    +0.243 C 
ATOM     31  N   ARG A   5     -15.968  12.255 -18.833  0.00  0.00    -0.298 N 
ATOM     32  H   ARG A   5     -15.634  11.851 -17.935  0.00  0.00    +0.150 HD
ATOM     33  O   SER A   4     -15.447  13.330 -20.737  0.00  0.00    -0.273 OA
BRANCH  31  34
ATOM     34  CA  ARG A   5     -17.384  12.205 -19.168  0.00  0.00    +0.137 C 
BRANCH  34  35
ATOM     35  C   ARG A   5     -18.250  11.839 -17.974  0.00  0.00    +0.227 C 
ATOM     36  O   ARG A   5     -17.985  10.849 -17.288  0.00  0.00    -0.286 OA
ENDBRANCH  34  35
BRANCH  34  37
ATOM     37  CB  ARG A   5     -17.601  11.172 -20.274  0.00  0.00    +0.031 C 
BRANCH  37  38
ATOM     38  CG  ARG A   5     -19.026  11.042 -20.767  0.00  0.00    +0.045 C 
BRANCH  38  39
ATOM     39  CD  ARG A   5     -19.141   9.863 -21.720  0.00  0.00    +0.174 C 
BRANCH  39  40
ATOM     40  NE  ARG A   5     -20.376   9.893 -22.495  0.00  0.00    -0.265 N 
ATOM     41  HE  ARG A   5     -21.029  10.688 -22.344  0.00  0.00    +0.259 HD
ATOM     42  CZ  ARG A   5     -20.718   8.964 -23.384  0.00  0.00    +0.342 C 
ATOM     43  NH2 ARG A   5     -19.918   7.926 -23.602  0.00  0.00    -0.292 N 
ATOM     44 HH21 ARG A   5     -19.024   7.839 -23.078  0.00  0.00    +0.255 HD
ATOM     45 HH22 ARG A   5     -20.186   7.200 -24.297  0.00  0.00    +0.255 HD
ATOM     46  NH1 ARG A   5     -21.862   9.069 -24.052  0.00  0.00    -0.292 N 
ATOM     47 HH11 ARG A   5     -22.492   9.878 -23.880  0.00  0.00    +0.255 HD
ATOM     48 HH12 ARG A   5     -22.127   8.342 -24.746  0.00  0.00    +0.255 HD
ENDBRANCH  39  40
ENDBRANCH  38  39
ENDBRANCH  37  38
ENDBRANCH  34  37
ENDBRANCH  31  34
ENDBRANCH  29  30
BRANCH  29  49
ATOM     49  CB  SER A   4     -13.402  13.808 -18.124  0.00  0.00    +0.166 C 
BRANCH  49  50
ATOM     50  OG  SER A   4     -12.042  13.805 -17.715  0.00  0.00    -0.380 OA
ATOM     51  H   SER A   4     -11.467  14.050 -18.483  0.00  0.00    +0.211 HD
ENDBRANCH  49  50
ENDBRANCH  29  49
ENDBRANCH  27  29
ENDBRANCH   1  25
BRANCH   1  52
ATOM     52  CB  ASN A   3     -11.861  12.771 -23.200  0.00  0.00    +0.114 C 
BRANCH  52  53
ATOM     53  CG  ASN A   3     -12.841  13.908 -23.458  0.00  0.00    +0.222 C 
ATOM     54  OD1 ASN A   3     -12.971  14.831 -22.651  0.00  0.00    -0.275 OA
ATOM     55  ND2 ASN A   3     -13.536  13.845 -24.592  0.00  0.00    -0.329 N 
ATOM     56 HD21 ASN A   3     -14.220  14.593 -24.825  0.00  0.00    +0.145 HD
ATOM     57 HD22 ASN A   3     -13.395  13.048 -25.245  0.00  0.00    +0.145 HD
ENDBRANCH  52  53
ENDBRANCH   1  52
TORSDOF 22
REMARK  Name = ../refined-set-2016/3m3c/3m3c_pocket.pdb
REMARK  124 active torsions:
REMARK  status: ('A' for Active; 'I' for Inactive)
REMARK    1  A    between atoms: _1  and  _3
REMARK    2  A    between atoms: _3  and  _4
REMARK    3  A    between atoms: _6  and  _8
REMARK    4  A    between atoms: _8  and  _9
REMARK    5  A    between atoms: _8  and  _11
REMARK    6  A    between atoms: _11  and  _12
REMARK    7  A    between atoms: _18  and  _19
REMARK    8  A    between atoms: _24  and  _26
REMARK    9  A    between atoms: _26  and  _27
REMARK   10  A    between atoms: _26  and  _29
REMARK   11  A    between atoms: _29  and  _30
REMARK   12  A    between atoms: _35  and  _37
REMARK   13  A    between atoms: _37  and  _38
REMARK   14  A    between atoms: _37  and  _40
REMARK   15  A    between atoms: _40  and  _41
REMARK   16  A    between atoms: _46  and  _48
REMARK   17  A    between atoms: _48  and  _49
REMARK   18  A    between atoms: _48  and  _51
REMARK   19  A    between atoms: _51  and  _52
REMARK   20  A    between atoms: _55  and  _57
REMARK   21  A    between atoms: _57  and  _58
REMARK   22  A    between atoms: _57  and  _60
REMARK   23  A    between atoms: _60  and  _61
REMARK   24  A    between atoms: _64  and  _66
REMARK   25  A    between atoms: _66  and  _67
REMARK   26  A    between atoms: _66  and  _69
REMARK   27  A    between atoms: _69  and  _70
REMARK   28  A    between atoms: _75  and  _77
REMARK   29  A    between atoms: _77  and  _78
REMARK   30  A    between atoms: _77  and  _80
REMARK   31  A    between atoms: _80  and  _81
REMARK   32  A    between atoms: _86  and  _87
REMARK   33  A    between atoms: _89  and  _91
REMARK   34  A    between atoms: _91  and  _92
REMARK   35  A    between atoms: _91  and  _94
REMARK   36  A    between atoms: _94  and  _95
REMARK   37  A    between atoms: _100  and  _102
REMARK   38  A    between atoms: _102  and  _103
REMARK   39  A    between atoms: _102  and  _105
REMARK   40  A    between atoms: _105  and  _106
REMARK   41  A    between atoms: _109  and  _111
REMARK   42  A    between atoms: _111  and  _112
REMARK   43  A    between atoms: _115  and  _117
REMARK   44  A    between atoms: _117  and  _118
REMARK   45  A    between atoms: _117  and  _120
REMARK   46  A    between atoms: _120  and  _121
REMARK   47  A    between atoms: _127  and  _129
REMARK   48  A    between atoms: _129  and  _130
REMARK   49  A    between atoms: _129  and  _132
REMARK   50  A    between atoms: _132  and  _133
REMARK   51  A    between atoms: _133  and  _134
REMARK   52  A    between atoms: _134  and  _135
REMARK   53  A    between atoms: _144  and  _146
REMARK   54  A    between atoms: _146  and  _147
REMARK   55  A    between atoms: _146  and  _149
REMARK   56  A    between atoms: _149  and  _150
REMARK   57  A    between atoms: _150  and  _151
REMARK   58  A    between atoms: _156  and  _158
REMARK   59  A    between atoms: _158  and  _159
REMARK   60  A    between atoms: _158  and  _161
REMARK   61  A    between atoms: _161  and  _162
REMARK   62  A    between atoms: _162  and  _163
REMARK   63  A    between atoms: _166  and  _168
REMARK   64  A    between atoms: _168  and  _169
REMARK   65  A    between atoms: _168  and  _171
REMARK   66  A    between atoms: _174  and  _176
REMARK   67  A    between atoms: _176  and  _177
REMARK   68  A    between atoms: _176  and  _179
REMARK   69  A    between atoms: _179  and  _180
REMARK   70  A    between atoms: _183  and  _185
REMARK   71  A    between atoms: _185  and  _186
REMARK   72  A    between atoms: _185  and  _188
REMARK   73  A    between atoms: _188  and  _189
REMARK   74  A    between atoms: _195  and  _197
REMARK   75  A    between atoms: _197  and  _198
REMARK   76  A    between atoms: _197  and  _200
REMARK   77  A    between atoms: _200  and  _201
REMARK   78  A    between atoms: _206  and  _208
REMARK   79  A    between atoms: _208  and  _209
REMARK   80  A    between atoms: _208  and  _211
REMARK   81  A    between atoms: _211  and  _212
REMARK   82  A    between atoms: _214  and  _216
REMARK   83  A    between atoms: _216  and  _217
REMARK   84  A    between atoms: _216  and  _219
REMARK   85  A    between atoms: _219  and  _220
REMARK   86  A    between atoms: _220  and  _221
REMARK   87  A    between atoms: _221  and  _222
REMARK   88  A    between atoms: _232  and  _233
REMARK   89  A    between atoms: _238  and  _240
REMARK   90  A    between atoms: _240  and  _241
REMARK   91  A    between atoms: _240  and  _243
REMARK   92  A    between atoms: _243  and  _244
REMARK   93  A    between atoms: _254  and  _256
REMARK   94  A    between atoms: _256  and  _257
REMARK   95  A    between atoms: _256  and  _259
REMARK   96  A    between atoms: _259  and  _260
REMARK   97  A    between atoms: _263  and  _265
REMARK   98  A    between atoms: _265  and  _266
REMARK   99  A    between atoms: _265  and  _268
REMARK  100  A    between atoms: _271  and  _273
REMARK  101  A    between atoms: _273  and  _274
REMARK  102  A    between atoms: _273  and  _276
REMARK  103  A    between atoms: _276  and  _277
REMARK  104  A    between atoms: _277  and  _278
REMARK  105  A    between atoms: _281  and  _283
REMARK  106  A    between atoms: _283  and  _284
REMARK  107  A    between atoms: _283  and  _286
REMARK  108  A    between atoms: _286  and  _287
REMARK  109  A    between atoms: _287  and  _288
REMARK  110  A    between atoms: _293  and  _295
REMARK  111  A    between atoms: _295  and  _296
REMARK  112  A    between atoms: _295  and  _298
REMARK  113  A    between atoms: _298  and  _299
REMARK  114  A    between atoms: _299  and  _300
REMARK  115  A    between atoms: _300  and  _301
REMARK  116  A    between atoms: _310  and  _312
REMARK  117  A    between atoms: _312  and  _313
REMARK  118  A    between atoms: _312  and  _315
REMARK  119  A    between atoms: _315  and  _316
REMARK  120  A    between atoms: _316  and  _317
REMARK  121  A    between atoms: _322  and  _324
REMARK  122  A    between atoms: _324  and  _325
REMARK  123  A    between atoms: _324  and  _327
REMARK  124  A    between atoms: _327  and  _328
REMARK                            x       y       z     vdW  Elec       q    Type
REMARK                         _______ _______ _______ _____ _____    ______ ____
ROOT
ATOM      1  C   VAL A   4     -11.735  17.492 -24.314  0.00  0.00    +0.241 C 
ATOM      2  O   VAL A   4     -11.038  17.304 -23.315  0.00  0.00    -0.273 OA
ATOM      3  N   GLU A   5     -11.475  16.941 -25.494  0.00  0.00    -0.297 N 
ATOM      4  H   GLU A   5     -12.103  17.150 -26.296  0.00  0.00    +0.150 HD
ENDROOT
BRANCH   1   5
ATOM      5  CA  VAL A   4     -12.960  18.403 -24.268  0.00  0.00    +0.149 C 
BRANCH   5   7
ATOM      6  C   LEU A   3     -14.873  16.997 -23.738  0.00  0.00    +0.241 C 
ATOM      7  N   VAL A   4     -14.036  17.963 -23.378  0.00  0.00    -0.297 N 
ATOM      8  H   VAL A   4     -14.147  18.415 -22.448  0.00  0.00    +0.150 HD
ATOM      9  O   LEU A   3     -14.774  16.405 -24.811  0.00  0.00    -0.273 OA
BRANCH   6  10
ATOM     10  CA  LEU A   3     -15.988  16.630 -22.759  0.00  0.00    +0.149 C 
BRANCH  10  12
ATOM     11  C   TRP A   2     -17.372  14.897 -23.725  0.00  0.00    +0.241 C 
ATOM     12  N   LEU A   3     -16.374  15.237 -22.920  0.00  0.00    -0.297 N 
ATOM     13  H   LEU A   3     -15.861  14.498 -22.398  0.00  0.00    +0.150 HD
ATOM     14  O   TRP A   2     -18.030  15.720 -24.360  0.00  0.00    -0.273 OA
BRANCH  11  15
ATOM     15  CA  TRP A   2     -17.698  13.417 -23.820  0.00  0.00    +0.153 C 
BRANCH  15  18
ATOM     16  C   PRO A   1     -19.954  13.855 -23.110  0.00  0.00    +0.239 C 
ATOM     17  O   PRO A   1     -19.552  14.409 -22.085  0.00  0.00    -0.274 OA
ATOM     18  N   TRP A   2     -19.135  13.318 -24.005  0.00  0.00    -0.297 N 
ATOM     19  H   TRP A   2     -19.521  12.827 -24.837  0.00  0.00    +0.150 HD
BRANCH  16  24
ATOM     20  N   PRO A   1     -22.200  14.024 -22.176  0.00  0.00    -0.210 NA
ATOM     21  CD  PRO A   1     -22.652  15.429 -22.143  0.00  0.00    +0.089 C 
ATOM     22  CG  PRO A   1     -21.942  16.036 -23.350  0.00  0.00    +0.021 C 
ATOM     23  CB  PRO A   1     -21.898  14.881 -24.313  0.00  0.00    +0.028 C 
ATOM     24  CA  PRO A   1     -21.445  13.758 -23.399  0.00  0.00    +0.149 C 
ENDBRANCH  16  24
ENDBRANCH  15  18
BRANCH  15  25
ATOM     25  CB  TRP A   2     -16.956  12.785 -25.000  0.00  0.00    +0.057 C 
BRANCH  25  26
ATOM     26  CG  TRP A   2     -16.905  11.303 -24.887  0.00  0.00    -0.002 A 
ATOM     27  CD2 TRP A   2     -16.132  10.551 -23.945  0.00  0.00    +0.013 A 
ATOM     28  CE3 TRP A   2     -15.203  10.898 -22.951  0.00  0.00    +0.001 A 
ATOM     29  CZ3 TRP A   2     -14.630   9.887 -22.193  0.00  0.00    +0.000 A 
ATOM     30  CH2 TRP A   2     -14.968   8.537 -22.409  0.00  0.00    +0.001 A 
ATOM     31  CZ2 TRP A   2     -15.871   8.171 -23.373  0.00  0.00    +0.017 A 
ATOM     32  CE2 TRP A   2     -16.448   9.189 -24.137  0.00  0.00    +0.056 A 
ATOM     33  NE1 TRP A   2     -17.367   9.122 -25.152  0.00  0.00    -0.352 N 
ATOM     34  HE1 TRP A   2     -17.793   8.250 -25.525  0.00  0.00    +0.166 HD
ATOM     35  CD1 TRP A   2     -17.634  10.395 -25.597  0.00  0.00    +0.068 A 
ENDBRANCH  25  26
ENDBRANCH  15  25
ENDBRANCH  11  15
ENDBRANCH  10  12
BRANCH  10  36
ATOM     36  CB  LEU A   3     -15.571  16.883 -21.308  0.00  0.00    +0.029 C 
BRANCH  36  37
ATOM     37  CG  LEU A   3     -16.666  16.504 -20.296  0.00  0.00    +0.002 C 
ATOM     38  CD2 LEU A   3     -16.175  16.773 -18.879  0.00  0.00    +0.000 C 
ATOM     39  CD1 LEU A   3     -17.942  17.302 -20.576  0.00  0.00    +0.000 C 
ENDBRANCH  36  37
ENDBRANCH  10  36
ENDBRANCH   6  10
ENDBRANCH   5   7
BRANCH   5  40
ATOM     40  CB  VAL A   4     -12.494  19.827 -23.904  0.00  0.00    +0.027 C 
ATOM     41  CG2 VAL A   4     -13.690  20.773 -23.902  0.00  0.00    +0.002 C 
ATOM     42  CG1 VAL A   4     -11.438  20.306 -24.899  0.00  0.00    +0.002 C 
ENDBRANCH   5  40
ENDBRANCH   1   5
BRANCH   3  43
ATOM     43  CA  GLU A   5     -10.337  16.051 -25.701  0.00  0.00    +0.149 C 
BRANCH  43  44
ATOM     44  C   GLU A   5      -9.000  16.769 -25.675  0.00  0.00    +0.241 C 
ATOM     45  N   GLN A   6      -8.011  16.137 -25.056  0.00  0.00    -0.297 N 
ATOM     46  H   GLN A   6      -8.209  15.252 -24.547  0.00  0.00    +0.150 HD
ATOM     47  O   GLU A   5      -8.867  17.873 -26.198  0.00  0.00    -0.273 OA
BRANCH  45  48
ATOM     48  CA  GLN A   6      -6.654  16.661 -25.077  0.00  0.00    +0.149 C 
BRANCH  48  49
ATOM     49  C   GLN A   6      -5.984  15.573 -25.912  0.00  0.00    +0.241 C 
ATOM     50  O   GLN A   6      -6.256  14.387 -25.711  0.00  0.00    -0.273 OA
ATOM     51  N   ARG A   7      -5.145  15.960 -26.865  0.00  0.00    -0.298 N 
ATOM     52  H   ARG A   7      -4.950  16.972 -27.002  0.00  0.00    +0.150 HD
BRANCH  51  53
ATOM     53  CA  ARG A   7      -4.496  14.975 -27.721  0.00  0.00    +0.137 C 
BRANCH  53  54
ATOM     54  C   ARG A   7      -2.980  15.091 -27.757  0.00  0.00    +0.227 C 
ATOM     55  O   ARG A   7      -2.424  16.189 -27.702  0.00  0.00    -0.286 OA
ENDBRANCH  53  54
BRANCH  53  56
ATOM     56  CB  ARG A   7      -5.026  15.088 -29.155  0.00  0.00    +0.031 C 
BRANCH  56  57
ATOM     57  CG  ARG A   7      -6.506  14.768 -29.329  0.00  0.00    +0.045 C 
BRANCH  57  58
ATOM     58  CD  ARG A   7      -6.858  14.634 -30.806  0.00  0.00    +0.174 C 
BRANCH  58  59
ATOM     59  NE  ARG A   7      -8.174  14.031 -30.985  0.00  0.00    -0.265 N 
ATOM     60  HE  ARG A   7      -8.851  14.100 -30.199  0.00  0.00    +0.259 HD
ATOM     61  CZ  ARG A   7      -8.564  13.399 -32.088  0.00  0.00    +0.342 C 
ATOM     62  NH2 ARG A   7      -9.780  12.878 -32.154  0.00  0.00    -0.292 N 
ATOM     63 HH21 ARG A   7     -10.427  12.964 -31.344  0.00  0.00    +0.255 HD
ATOM     64 HH22 ARG A   7     -10.088  12.383 -33.015  0.00  0.00    +0.255 HD
ATOM     65  NH1 ARG A   7      -7.736  13.283 -33.124  0.00  0.00    -0.292 N 
ATOM     66 HH11 ARG A   7      -6.779  13.688 -33.073  0.00  0.00    +0.255 HD
ATOM     67 HH12 ARG A   7      -8.046  12.788 -33.984  0.00  0.00    +0.255 HD
ENDBRANCH  58  59
ENDBRANCH  57  58
ENDBRANCH  56  57
ENDBRANCH  53  56
ENDBRANCH  51  53
ENDBRANCH  48  49
BRANCH  48  68
ATOM     68  CB  GLN A   6      -6.036  16.727 -23.677  0.00  0.00    +0.039 C 
BRANCH  68  69
ATOM     69  CG  GLN A   6      -6.545  17.887 -22.832  0.00  0.00    +0.087 C 
BRANCH  69  70
ATOM     70  CD  GLN A   6      -6.529  19.212 -23.585  0.00  0.00    +0.219 C 
ATOM     71  NE2 GLN A   6      -7.610  19.973 -23.463  0.00  0.00    -0.329 N 
ATOM     72 HE21 GLN A   6      -8.409  19.652 -22.880  0.00  0.00    +0.145 HD
ATOM     73 HE22 GLN A   6      -7.658  20.891 -23.950  0.00  0.00    +0.145 HD
ATOM     74  OE1 GLN A   6      -5.555  19.546 -24.263  0.00  0.00    -0.275 OA
ENDBRANCH  69  70
ENDBRANCH  68  69
ENDBRANCH  48  68
ENDBRANCH  45  48
ENDBRANCH  43  44
BRANCH  43  75
ATOM     75  CB  GLU A   5     -10.417  15.358 -27.068  0.00  0.00    +0.041 C 
BRANCH  75  76
ATOM     76  CG  GLU A   5     -11.469  14.277 -27.233  0.00  0.00    +0.116 C 
BRANCH  76  77
ATOM     77  CD  GLU A   5     -11.352  13.562 -28.572  0.00  0.00    +0.365 C 
ATOM     78  OE2 GLU A   5     -11.959  12.486 -28.718  0.00  0.00    -0.246 OA
ATOM     79  OE1 GLU A   5     -10.659  14.075 -29.485  0.00  0.00    -0.246 OA
ENDBRANCH  76  77
ENDBRANCH  75  76
ENDBRANCH  43  75
ENDBRANCH   3  43
TORSDOF 28
REMARK  Name = ../refined-set-2016/3m3c/3m3c_pocket.pdb
REMARK  124 active torsions:
REMARK  status: ('A' for Active; 'I' for Inactive)
REMARK    1  A    between atoms: _1  and  _3
REMARK    2  A    between atoms: _3  and  _4
REMARK    3  A    between atoms: _6  and  _8
REMARK    4  A    between atoms: _8  and  _9
REMARK    5  A    between atoms: _8  and  _11
REMARK    6  A    between atoms: _11  and  _12
REMARK    7  A    between atoms: _18  and  _19
REMARK    8  A    between atoms: _24  and  _26
REMARK    9  A    between atoms: _26  and  _27
REMARK   10  A    between atoms: _26  and  _29
REMARK   11  A    between atoms: _29  and  _30
REMARK   12  A    between atoms: _35  and  _37
REMARK   13  A    between atoms: _37  and  _38
REMARK   14  A    between atoms: _37  and  _40
REMARK   15  A    between atoms: _40  and  _41
REMARK   16  A    between atoms: _46  and  _48
REMARK   17  A    between atoms: _48  and  _49
REMARK   18  A    between atoms: _48  and  _51
REMARK   19  A    between atoms: _51  and  _52
REMARK   20  A    between atoms: _55  and  _57
REMARK   21  A    between atoms: _57  and  _58
REMARK   22  A    between atoms: _57  and  _60
REMARK   23  A    between atoms: _60  and  _61
REMARK   24  A    between atoms: _64  and  _66
REMARK   25  A    between atoms: _66  and  _67
REMARK   26  A    between atoms: _66  and  _69
REMARK   27  A    between atoms: _69  and  _70
REMARK   28  A    between atoms: _75  and  _77
REMARK   29  A    between atoms: _77  and  _78
REMARK   30  A    between atoms: _77  and  _80
REMARK   31  A    between atoms: _80  and  _81
REMARK   32  A    between atoms: _86  and  _87
REMARK   33  A    between atoms: _89  and  _91
REMARK   34  A    between atoms: _91  and  _92
REMARK   35  A    between atoms: _91  and  _94
REMARK   36  A    between atoms: _94  and  _95
REMARK   37  A    between atoms: _100  and  _102
REMARK   38  A    between atoms: _102  and  _103
REMARK   39  A    between atoms: _102  and  _105
REMARK   40  A    between atoms: _105  and  _106
REMARK   41  A    between atoms: _109  and  _111
REMARK   42  A    between atoms: _111  and  _112
REMARK   43  A    between atoms: _115  and  _117
REMARK   44  A    between atoms: _117  and  _118
REMARK   45  A    between atoms: _117  and  _120
REMARK   46  A    between atoms: _120  and  _121
REMARK   47  A    between atoms: _127  and  _129
REMARK   48  A    between atoms: _129  and  _130
REMARK   49  A    between atoms: _129  and  _132
REMARK   50  A    between atoms: _132  and  _133
REMARK   51  A    between atoms: _133  and  _134
REMARK   52  A    between atoms: _134  and  _135
REMARK   53  A    between atoms: _144  and  _146
REMARK   54  A    between atoms: _146  and  _147
REMARK   55  A    between atoms: _146  and  _149
REMARK   56  A    between atoms: _149  and  _150
REMARK   57  A    between atoms: _150  and  _151
REMARK   58  A    between atoms: _156  and  _158
REMARK   59  A    between atoms: _158  and  _159
REMARK   60  A    between atoms: _158  and  _161
REMARK   61  A    between atoms: _161  and  _162
REMARK   62  A    between atoms: _162  and  _163
REMARK   63  A    between atoms: _166  and  _168
REMARK   64  A    between atoms: _168  and  _169
REMARK   65  A    between atoms: _168  and  _171
REMARK   66  A    between atoms: _174  and  _176
REMARK   67  A    between atoms: _176  and  _177
REMARK   68  A    between atoms: _176  and  _179
REMARK   69  A    between atoms: _179  and  _180
REMARK   70  A    between atoms: _183  and  _185
REMARK   71  A    between atoms: _185  and  _186
REMARK   72  A    between atoms: _185  and  _188
REMARK   73  A    between atoms: _188  and  _189
REMARK   74  A    between atoms: _195  and  _197
REMARK   75  A    between atoms: _197  and  _198
REMARK   76  A    between atoms: _197  and  _200
REMARK   77  A    between atoms: _200  and  _201
REMARK   78  A    between atoms: _206  and  _208
REMARK   79  A    between atoms: _208  and  _209
REMARK   80  A    between atoms: _208  and  _211
REMARK   81  A    between atoms: _211  and  _212
REMARK   82  A    between atoms: _214  and  _216
REMARK   83  A    between atoms: _216  and  _217
REMARK   84  A    between atoms: _216  and  _219
REMARK   85  A    between atoms: _219  and  _220
REMARK   86  A    between atoms: _220  and  _221
REMARK   87  A    between atoms: _221  and  _222
REMARK   88  A    between atoms: _232  and  _233
REMARK   89  A    between atoms: _238  and  _240
REMARK   90  A    between atoms: _240  and  _241
REMARK   91  A    between atoms: _240  and  _243
REMARK   92  A    between atoms: _243  and  _244
REMARK   93  A    between atoms: _254  and  _256
REMARK   94  A    between atoms: _256  and  _257
REMARK   95  A    between atoms: _256  and  _259
REMARK   96  A    between atoms: _259  and  _260
REMARK   97  A    between atoms: _263  and  _265
REMARK   98  A    between atoms: _265  and  _266
REMARK   99  A    between atoms: _265  and  _268
REMARK  100  A    between atoms: _271  and  _273
REMARK  101  A    between atoms: _273  and  _274
REMARK  102  A    between atoms: _273  and  _276
REMARK  103  A    between atoms: _276  and  _277
REMARK  104  A    between atoms: _277  and  _278
REMARK  105  A    between atoms: _281  and  _283
REMARK  106  A    between atoms: _283  and  _284
REMARK  107  A    between atoms: _283  and  _286
REMARK  108  A    between atoms: _286  and  _287
REMARK  109  A    between atoms: _287  and  _288
REMARK  110  A    between atoms: _293  and  _295
REMARK  111  A    between atoms: _295  and  _296
REMARK  112  A    between atoms: _295  and  _298
REMARK  113  A    between atoms: _298  and  _299
REMARK  114  A    between atoms: _299  and  _300
REMARK  115  A    between atoms: _300  and  _301
REMARK  116  A    between atoms: _310  and  _312
REMARK  117  A    between atoms: _312  and  _313
REMARK  118  A    between atoms: _312  and  _315
REMARK  119  A    between atoms: _315  and  _316
REMARK  120  A    between atoms: _316  and  _317
REMARK  121  A    between atoms: _322  and  _324
REMARK  122  A    between atoms: _324  and  _325
REMARK  123  A    between atoms: _324  and  _327
REMARK  124  A    between atoms: _327  and  _328
REMARK                            x       y       z     vdW  Elec       q    Type
REMARK                         _______ _______ _______ _____ _____    ______ ____
ROOT
ATOM      1  CB  GLN A   1     -12.855  17.672 -17.552  0.00  0.00    +0.035 C 
ENDROOT
BRANCH   1   2
ATOM      2  CA  GLN A   1     -12.500  18.111 -16.130  0.00  0.00    +0.134 C 
BRANCH   2   3
ATOM      3  N   GLN A   1     -11.257  17.494 -15.690  0.00  0.00    -0.239 NA
ATOM      4  H   GLN A   1     -11.124  16.472 -15.829  0.00  0.00    +0.142 HD
ENDBRANCH   2   3
BRANCH   2   5
ATOM      5  C   GLN A   1     -13.580  17.655 -15.157  0.00  0.00    +0.224 C 
ATOM      6  O   GLN A   1     -14.676  18.212 -15.116  0.00  0.00    -0.287 OA
ENDBRANCH   2   5
ENDBRANCH   1   2
BRANCH   1   7
ATOM      7  CG  GLN A   1     -11.812  18.052 -18.594  0.00  0.00    +0.087 C 
BRANCH   7   8
ATOM      8  CD  GLN A   1     -12.310  17.852 -20.013  0.00  0.00    +0.219 C 
ATOM      9  OE1 GLN A   1     -13.073  18.667 -20.537  0.00  0.00    -0.275 OA
ATOM     10  NE2 GLN A   1     -11.885  16.761 -20.641  0.00  0.00    -0.329 N 
ATOM     11 HE21 GLN A   1     -11.241  16.101 -20.159  0.00  0.00    +0.145 HD
ATOM     12 HE22 GLN A   1     -12.196  16.567 -21.614  0.00  0.00    +0.145 HD
ENDBRANCH   7   8
ENDBRANCH   1   7
TORSDOF 5
REMARK  Name = ../refined-set-2016/3m3c/3m3c_pocket.pdb
REMARK  124 active torsions:
REMARK  status: ('A' for Active; 'I' for Inactive)
REMARK    1  A    between atoms: _1  and  _3
REMARK    2  A    between atoms: _3  and  _4
REMARK    3  A    between atoms: _6  and  _8
REMARK    4  A    between atoms: _8  and  _9
REMARK    5  A    between atoms: _8  and  _11
REMARK    6  A    between atoms: _11  and  _12
REMARK    7  A    between atoms: _18  and  _19
REMARK    8  A    between atoms: _24  and  _26
REMARK    9  A    between atoms: _26  and  _27
REMARK   10  A    between atoms: _26  and  _29
REMARK   11  A    between atoms: _29  and  _30
REMARK   12  A    between atoms: _35  and  _37
REMARK   13  A    between atoms: _37  and  _38
REMARK   14  A    between atoms: _37  and  _40
REMARK   15  A    between atoms: _40  and  _41
REMARK   16  A    between atoms: _46  and  _48
REMARK   17  A    between atoms: _48  and  _49
REMARK   18  A    between atoms: _48  and  _51
REMARK   19  A    between atoms: _51  and  _52
REMARK   20  A    between atoms: _55  and  _57
REMARK   21  A    between atoms: _57  and  _58
REMARK   22  A    between atoms: _57  and  _60
REMARK   23  A    between atoms: _60  and  _61
REMARK   24  A    between atoms: _64  and  _66
REMARK   25  A    between atoms: _66  and  _67
REMARK   26  A    between atoms: _66  and  _69
REMARK   27  A    between atoms: _69  and  _70
REMARK   28  A    between atoms: _75  and  _77
REMARK   29  A    between atoms: _77  and  _78
REMARK   30  A    between atoms: _77  and  _80
REMARK   31  A    between atoms: _80  and  _81
REMARK   32  A    between atoms: _86  and  _87
REMARK   33  A    between atoms: _89  and  _91
REMARK   34  A    between atoms: _91  and  _92
REMARK   35  A    between atoms: _91  and  _94
REMARK   36  A    between atoms: _94  and  _95
REMARK   37  A    between atoms: _100  and  _102
REMARK   38  A    between atoms: _102  and  _103
REMARK   39  A    between atoms: _102  and  _105
REMARK   40  A    between atoms: _105  and  _106
REMARK   41  A    between atoms: _109  and  _111
REMARK   42  A    between atoms: _111  and  _112
REMARK   43  A    between atoms: _115  and  _117
REMARK   44  A    between atoms: _117  and  _118
REMARK   45  A    between atoms: _117  and  _120
REMARK   46  A    between atoms: _120  and  _121
REMARK   47  A    between atoms: _127  and  _129
REMARK   48  A    between atoms: _129  and  _130
REMARK   49  A    between atoms: _129  and  _132
REMARK   50  A    between atoms: _132  and  _133
REMARK   51  A    between atoms: _133  and  _134
REMARK   52  A    between atoms: _134  and  _135
REMARK   53  A    between atoms: _144  and  _146
REMARK   54  A    between atoms: _146  and  _147
REMARK   55  A    between atoms: _146  and  _149
REMARK   56  A    between atoms: _149  and  _150
REMARK   57  A    between atoms: _150  and  _151
REMARK   58  A    between atoms: _156  and  _158
REMARK   59  A    between atoms: _158  and  _159
REMARK   60  A    between atoms: _158  and  _161
REMARK   61  A    between atoms: _161  and  _162
REMARK   62  A    between atoms: _162  and  _163
REMARK   63  A    between atoms: _166  and  _168
REMARK   64  A    between atoms: _168  and  _169
REMARK   65  A    between atoms: _168  and  _171
REMARK   66  A    between atoms: _174  and  _176
REMARK   67  A    between atoms: _176  and  _177
REMARK   68  A    between atoms: _176  and  _179
REMARK   69  A    between atoms: _179  and  _180
REMARK   70  A    between atoms: _183  and  _185
REMARK   71  A    between atoms: _185  and  _186
REMARK   72  A    between atoms: _185  and  _188
REMARK   73  A    between atoms: _188  and  _189
REMARK   74  A    between atoms: _195  and  _197
REMARK   75  A    between atoms: _197  and  _198
REMARK   76  A    between atoms: _197  and  _200
REMARK   77  A    between atoms: _200  and  _201
REMARK   78  A    between atoms: _206  and  _208
REMARK   79  A    between atoms: _208  and  _209
REMARK   80  A    between atoms: _208  and  _211
REMARK   81  A    between atoms: _211  and  _212
REMARK   82  A    between atoms: _214  and  _216
REMARK   83  A    between atoms: _216  and  _217
REMARK   84  A    between atoms: _216  and  _219
REMARK   85  A    between atoms: _219  and  _220
REMARK   86  A    between atoms: _220  and  _221
REMARK   87  A    between atoms: _221  and  _222
REMARK   88  A    between atoms: _232  and  _233
REMARK   89  A    between atoms: _238  and  _240
REMARK   90  A    between atoms: _240  and  _241
REMARK   91  A    between atoms: _240  and  _243
REMARK   92  A    between atoms: _243  and  _244
REMARK   93  A    between atoms: _254  and  _256
REMARK   94  A    between atoms: _256  and  _257
REMARK   95  A    between atoms: _256  and  _259
REMARK   96  A    between atoms: _259  and  _260
REMARK   97  A    between atoms: _263  and  _265
REMARK   98  A    between atoms: _265  and  _266
REMARK   99  A    between atoms: _265  and  _268
REMARK  100  A    between atoms: _271  and  _273
REMARK  101  A    between atoms: _273  and  _274
REMARK  102  A    between atoms: _273  and  _276
REMARK  103  A    between atoms: _276  and  _277
REMARK  104  A    between atoms: _277  and  _278
REMARK  105  A    between atoms: _281  and  _283
REMARK  106  A    between atoms: _283  and  _284
REMARK  107  A    between atoms: _283  and  _286
REMARK  108  A    between atoms: _286  and  _287
REMARK  109  A    between atoms: _287  and  _288
REMARK  110  A    between atoms: _293  and  _295
REMARK  111  A    between atoms: _295  and  _296
REMARK  112  A    between atoms: _295  and  _298
REMARK  113  A    between atoms: _298  and  _299
REMARK  114  A    between atoms: _299  and  _300
REMARK  115  A    between atoms: _300  and  _301
REMARK  116  A    between atoms: _310  and  _312
REMARK  117  A    between atoms: _312  and  _313
REMARK  118  A    between atoms: _312  and  _315
REMARK  119  A    between atoms: _315  and  _316
REMARK  120  A    between atoms: _316  and  _317
REMARK  121  A    between atoms: _322  and  _324
REMARK  122  A    between atoms: _324  and  _325
REMARK  123  A    between atoms: _324  and  _327
REMARK  124  A    between atoms: _327  and  _328
REMARK                            x       y       z     vdW  Elec       q    Type
REMARK                         _______ _______ _______ _____ _____    ______ ____
ROOT
ATOM      1  CB  ASN A   1     -12.460  -0.885 -23.463  0.00  0.00    +0.110 C 
ENDROOT
BRANCH   1   2
ATOM      2  CG  ASN A   1     -13.550  -1.391 -24.390  0.00  0.00    +0.221 C 
ATOM      3  OD1 ASN A   1     -13.778  -2.597 -24.492  0.00  0.00    -0.275 OA
ATOM      4  ND2 ASN A   1     -14.242  -0.472 -25.057  0.00  0.00    -0.329 N 
ATOM      5 HD21 ASN A   1     -14.015   0.536 -24.940  0.00  0.00    +0.145 HD
ATOM      6 HD22 ASN A   1     -15.010  -0.761 -25.695  0.00  0.00    +0.145 HD
ENDBRANCH   1   2
BRANCH   1   7
ATOM      7  CA  ASN A   1     -11.272  -1.848 -23.377  0.00  0.00    +0.142 C 
BRANCH   7   8
ATOM      8  N   ASN A   1     -10.387  -1.445 -22.297  0.00  0.00    -0.239 NA
ATOM      9  H   ASN A   1      -9.971  -0.492 -22.296  0.00  0.00    +0.142 HD
ENDBRANCH   7   8
BRANCH   7  10
ATOM     10  C   ASN A   1     -10.569  -1.939 -24.720  0.00  0.00    +0.225 C 
ATOM     11  O   ASN A   1      -9.816  -1.043 -25.107  0.00  0.00    -0.287 OA
ENDBRANCH   7  10
ENDBRANCH   1   7
TORSDOF 4
REMARK  Name = ../refined-set-2016/3m3c/3m3c_pocket.pdb
REMARK  124 active torsions:
REMARK  status: ('A' for Active; 'I' for Inactive)
REMARK    1  A    between atoms: _1  and  _3
REMARK    2  A    between atoms: _3  and  _4
REMARK    3  A    between atoms: _6  and  _8
REMARK    4  A    between atoms: _8  and  _9
REMARK    5  A    between atoms: _8  and  _11
REMARK    6  A    between atoms: _11  and  _12
REMARK    7  A    between atoms: _18  and  _19
REMARK    8  A    between atoms: _24  and  _26
REMARK    9  A    between atoms: _26  and  _27
REMARK   10  A    between atoms: _26  and  _29
REMARK   11  A    between atoms: _29  and  _30
REMARK   12  A    between atoms: _35  and  _37
REMARK   13  A    between atoms: _37  and  _38
REMARK   14  A    between atoms: _37  and  _40
REMARK   15  A    between atoms: _40  and  _41
REMARK   16  A    between atoms: _46  and  _48
REMARK   17  A    between atoms: _48  and  _49
REMARK   18  A    between atoms: _48  and  _51
REMARK   19  A    between atoms: _51  and  _52
REMARK   20  A    between atoms: _55  and  _57
REMARK   21  A    between atoms: _57  and  _58
REMARK   22  A    between atoms: _57  and  _60
REMARK   23  A    between atoms: _60  and  _61
REMARK   24  A    between atoms: _64  and  _66
REMARK   25  A    between atoms: _66  and  _67
REMARK   26  A    between atoms: _66  and  _69
REMARK   27  A    between atoms: _69  and  _70
REMARK   28  A    between atoms: _75  and  _77
REMARK   29  A    between atoms: _77  and  _78
REMARK   30  A    between atoms: _77  and  _80
REMARK   31  A    between atoms: _80  and  _81
REMARK   32  A    between atoms: _86  and  _87
REMARK   33  A    between atoms: _89  and  _91
REMARK   34  A    between atoms: _91  and  _92
REMARK   35  A    between atoms: _91  and  _94
REMARK   36  A    between atoms: _94  and  _95
REMARK   37  A    between atoms: _100  and  _102
REMARK   38  A    between atoms: _102  and  _103
REMARK   39  A    between atoms: _102  and  _105
REMARK   40  A    between atoms: _105  and  _106
REMARK   41  A    between atoms: _109  and  _111
REMARK   42  A    between atoms: _111  and  _112
REMARK   43  A    between atoms: _115  and  _117
REMARK   44  A    between atoms: _117  and  _118
REMARK   45  A    between atoms: _117  and  _120
REMARK   46  A    between atoms: _120  and  _121
REMARK   47  A    between atoms: _127  and  _129
REMARK   48  A    between atoms: _129  and  _130
REMARK   49  A    between atoms: _129  and  _132
REMARK   50  A    between atoms: _132  and  _133
REMARK   51  A    between atoms: _133  and  _134
REMARK   52  A    between atoms: _134  and  _135
REMARK   53  A    between atoms: _144  and  _146
REMARK   54  A    between atoms: _146  and  _147
REMARK   55  A    between atoms: _146  and  _149
REMARK   56  A    between atoms: _149  and  _150
REMARK   57  A    between atoms: _150  and  _151
REMARK   58  A    between atoms: _156  and  _158
REMARK   59  A    between atoms: _158  and  _159
REMARK   60  A    between atoms: _158  and  _161
REMARK   61  A    between atoms: _161  and  _162
REMARK   62  A    between atoms: _162  and  _163
REMARK   63  A    between atoms: _166  and  _168
REMARK   64  A    between atoms: _168  and  _169
REMARK   65  A    between atoms: _168  and  _171
REMARK   66  A    between atoms: _174  and  _176
REMARK   67  A    between atoms: _176  and  _177
REMARK   68  A    between atoms: _176  and  _179
REMARK   69  A    between atoms: _179  and  _180
REMARK   70  A    between atoms: _183  and  _185
REMARK   71  A    between atoms: _185  and  _186
REMARK   72  A    between atoms: _185  and  _188
REMARK   73  A    between atoms: _188  and  _189
REMARK   74  A    between atoms: _195  and  _197
REMARK   75  A    between atoms: _197  and  _198
REMARK   76  A    between atoms: _197  and  _200
REMARK   77  A    between atoms: _200  and  _201
REMARK   78  A    between atoms: _206  and  _208
REMARK   79  A    between atoms: _208  and  _209
REMARK   80  A    between atoms: _208  and  _211
REMARK   81  A    between atoms: _211  and  _212
REMARK   82  A    between atoms: _214  and  _216
REMARK   83  A    between atoms: _216  and  _217
REMARK   84  A    between atoms: _216  and  _219
REMARK   85  A    between atoms: _219  and  _220
REMARK   86  A    between atoms: _220  and  _221
REMARK   87  A    between atoms: _221  and  _222
REMARK   88  A    between atoms: _232  and  _233
REMARK   89  A    between atoms: _238  and  _240
REMARK   90  A    between atoms: _240  and  _241
REMARK   91  A    between atoms: _240  and  _243
REMARK   92  A    between atoms: _243  and  _244
REMARK   93  A    between atoms: _254  and  _256
REMARK   94  A    between atoms: _256  and  _257
REMARK   95  A    between atoms: _256  and  _259
REMARK   96  A    between atoms: _259  and  _260
REMARK   97  A    between atoms: _263  and  _265
REMARK   98  A    between atoms: _265  and  _266
REMARK   99  A    between atoms: _265  and  _268
REMARK  100  A    between atoms: _271  and  _273
REMARK  101  A    between atoms: _273  and  _274
REMARK  102  A    between atoms: _273  and  _276
REMARK  103  A    between atoms: _276  and  _277
REMARK  104  A    between atoms: _277  and  _278
REMARK  105  A    between atoms: _281  and  _283
REMARK  106  A    between atoms: _283  and  _284
REMARK  107  A    between atoms: _283  and  _286
REMARK  108  A    between atoms: _286  and  _287
REMARK  109  A    between atoms: _287  and  _288
REMARK  110  A    between atoms: _293  and  _295
REMARK  111  A    between atoms: _295  and  _296
REMARK  112  A    between atoms: _295  and  _298
REMARK  113  A    between atoms: _298  and  _299
REMARK  114  A    between atoms: _299  and  _300
REMARK  115  A    between atoms: _300  and  _301
REMARK  116  A    between atoms: _310  and  _312
REMARK  117  A    between atoms: _312  and  _313
REMARK  118  A    between atoms: _312  and  _315
REMARK  119  A    between atoms: _315  and  _316
REMARK  120  A    between atoms: _316  and  _317
REMARK  121  A    between atoms: _322  and  _324
REMARK  122  A    between atoms: _324  and  _325
REMARK  123  A    between atoms: _324  and  _327
REMARK  124  A    between atoms: _327  and  _328
REMARK                            x       y       z     vdW  Elec       q    Type
REMARK                         _______ _______ _______ _____ _____    ______ ____
ROOT
ATOM      1  O   HOH     1     -13.022   2.220 -27.206  0.00  0.00    +0.000 OA
ENDROOT
TORSDOF 0
REMARK  Name = ../refined-set-2016/3m3c/3m3c_pocket.pdb
REMARK  124 active torsions:
REMARK  status: ('A' for Active; 'I' for Inactive)
REMARK    1  A    between atoms: _1  and  _3
REMARK    2  A    between atoms: _3  and  _4
REMARK    3  A    between atoms: _6  and  _8
REMARK    4  A    between atoms: _8  and  _9
REMARK    5  A    between atoms: _8  and  _11
REMARK    6  A    between atoms: _11  and  _12
REMARK    7  A    between atoms: _18  and  _19
REMARK    8  A    between atoms: _24  and  _26
REMARK    9  A    between atoms: _26  and  _27
REMARK   10  A    between atoms: _26  and  _29
REMARK   11  A    between atoms: _29  and  _30
REMARK   12  A    between atoms: _35  and  _37
REMARK   13  A    between atoms: _37  and  _38
REMARK   14  A    between atoms: _37  and  _40
REMARK   15  A    between atoms: _40  and  _41
REMARK   16  A    between atoms: _46  and  _48
REMARK   17  A    between atoms: _48  and  _49
REMARK   18  A    between atoms: _48  and  _51
REMARK   19  A    between atoms: _51  and  _52
REMARK   20  A    between atoms: _55  and  _57
REMARK   21  A    between atoms: _57  and  _58
REMARK   22  A    between atoms: _57  and  _60
REMARK   23  A    between atoms: _60  and  _61
REMARK   24  A    between atoms: _64  and  _66
REMARK   25  A    between atoms: _66  and  _67
REMARK   26  A    between atoms: _66  and  _69
REMARK   27  A    between atoms: _69  and  _70
REMARK   28  A    between atoms: _75  and  _77
REMARK   29  A    between atoms: _77  and  _78
REMARK   30  A    between atoms: _77  and  _80
REMARK   31  A    between atoms: _80  and  _81
REMARK   32  A    between atoms: _86  and  _87
REMARK   33  A    between atoms: _89  and  _91
REMARK   34  A    between atoms: _91  and  _92
REMARK   35  A    between atoms: _91  and  _94
REMARK   36  A    between atoms: _94  and  _95
REMARK   37  A    between atoms: _100  and  _102
REMARK   38  A    between atoms: _102  and  _103
REMARK   39  A    between atoms: _102  and  _105
REMARK   40  A    between atoms: _105  and  _106
REMARK   41  A    between atoms: _109  and  _111
REMARK   42  A    between atoms: _111  and  _112
REMARK   43  A    between atoms: _115  and  _117
REMARK   44  A    between atoms: _117  and  _118
REMARK   45  A    between atoms: _117  and  _120
REMARK   46  A    between atoms: _120  and  _121
REMARK   47  A    between atoms: _127  and  _129
REMARK   48  A    between atoms: _129  and  _130
REMARK   49  A    between atoms: _129  and  _132
REMARK   50  A    between atoms: _132  and  _133
REMARK   51  A    between atoms: _133  and  _134
REMARK   52  A    between atoms: _134  and  _135
REMARK   53  A    between atoms: _144  and  _146
REMARK   54  A    between atoms: _146  and  _147
REMARK   55  A    between atoms: _146  and  _149
REMARK   56  A    between atoms: _149  and  _150
REMARK   57  A    between atoms: _150  and  _151
REMARK   58  A    between atoms: _156  and  _158
REMARK   59  A    between atoms: _158  and  _159
REMARK   60  A    between atoms: _158  and  _161
REMARK   61  A    between atoms: _161  and  _162
REMARK   62  A    between atoms: _162  and  _163
REMARK   63  A    between atoms: _166  and  _168
REMARK   64  A    between atoms: _168  and  _169
REMARK   65  A    between atoms: _168  and  _171
REMARK   66  A    between atoms: _174  and  _176
REMARK   67  A    between atoms: _176  and  _177
REMARK   68  A    between atoms: _176  and  _179
REMARK   69  A    between atoms: _179  and  _180
REMARK   70  A    between atoms: _183  and  _185
REMARK   71  A    between atoms: _185  and  _186
REMARK   72  A    between atoms: _185  and  _188
REMARK   73  A    between atoms: _188  and  _189
REMARK   74  A    between atoms: _195  and  _197
REMARK   75  A    between atoms: _197  and  _198
REMARK   76  A    between atoms: _197  and  _200
REMARK   77  A    between atoms: _200  and  _201
REMARK   78  A    between atoms: _206  and  _208
REMARK   79  A    between atoms: _208  and  _209
REMARK   80  A    between atoms: _208  and  _211
REMARK   81  A    between atoms: _211  and  _212
REMARK   82  A    between atoms: _214  and  _216
REMARK   83  A    between atoms: _216  and  _217
REMARK   84  A    between atoms: _216  and  _219
REMARK   85  A    between atoms: _219  and  _220
REMARK   86  A    between atoms: _220  and  _221
REMARK   87  A    between atoms: _221  and  _222
REMARK   88  A    between atoms: _232  and  _233
REMARK   89  A    between atoms: _238  and  _240
REMARK   90  A    between atoms: _240  and  _241
REMARK   91  A    between atoms: _240  and  _243
REMARK   92  A    between atoms: _243  and  _244
REMARK   93  A    between atoms: _254  and  _256
REMARK   94  A    between atoms: _256  and  _257
REMARK   95  A    between atoms: _256  and  _259
REMARK   96  A    between atoms: _259  and  _260
REMARK   97  A    between atoms: _263  and  _265
REMARK   98  A    between atoms: _265  and  _266
REMARK   99  A    between atoms: _265  and  _268
REMARK  100  A    between atoms: _271  and  _273
REMARK  101  A    between atoms: _273  and  _274
REMARK  102  A    between atoms: _273  and  _276
REMARK  103  A    between atoms: _276  and  _277
REMARK  104  A    between atoms: _277  and  _278
REMARK  105  A    between atoms: _281  and  _283
REMARK  106  A    between atoms: _283  and  _284
REMARK  107  A    between atoms: _283  and  _286
REMARK  108  A    between atoms: _286  and  _287
REMARK  109  A    between atoms: _287  and  _288
REMARK  110  A    between atoms: _293  and  _295
REMARK  111  A    between atoms: _295  and  _296
REMARK  112  A    between atoms: _295  and  _298
REMARK  113  A    between atoms: _298  and  _299
REMARK  114  A    between atoms: _299  and  _300
REMARK  115  A    between atoms: _300  and  _301
REMARK  116  A    between atoms: _310  and  _312
REMARK  117  A    between atoms: _312  and  _313
REMARK  118  A    between atoms: _312  and  _315
REMARK  119  A    between atoms: _315  and  _316
REMARK  120  A    between atoms: _316  and  _317
REMARK  121  A    between atoms: _322  and  _324
REMARK  122  A    between atoms: _324  and  _325
REMARK  123  A    between atoms: _324  and  _327
REMARK  124  A    between atoms: _327  and  _328
REMARK                            x       y       z     vdW  Elec       q    Type
REMARK                         _______ _______ _______ _____ _____    ______ ____
ROOT
ATOM      1  O   HOH     1     -13.527   2.292 -29.990  0.00  0.00    +0.000 OA
ENDROOT
TORSDOF 0
REMARK  Name = ../refined-set-2016/3m3c/3m3c_pocket.pdb
REMARK  124 active torsions:
REMARK  status: ('A' for Active; 'I' for Inactive)
REMARK    1  A    between atoms: _1  and  _3
REMARK    2  A    between atoms: _3  and  _4
REMARK    3  A    between atoms: _6  and  _8
REMARK    4  A    between atoms: _8  and  _9
REMARK    5  A    between atoms: _8  and  _11
REMARK    6  A    between atoms: _11  and  _12
REMARK    7  A    between atoms: _18  and  _19
REMARK    8  A    between atoms: _24  and  _26
REMARK    9  A    between atoms: _26  and  _27
REMARK   10  A    between atoms: _26  and  _29
REMARK   11  A    between atoms: _29  and  _30
REMARK   12  A    between atoms: _35  and  _37
REMARK   13  A    between atoms: _37  and  _38
REMARK   14  A    between atoms: _37  and  _40
REMARK   15  A    between atoms: _40  and  _41
REMARK   16  A    between atoms: _46  and  _48
REMARK   17  A    between atoms: _48  and  _49
REMARK   18  A    between atoms: _48  and  _51
REMARK   19  A    between atoms: _51  and  _52
REMARK   20  A    between atoms: _55  and  _57
REMARK   21  A    between atoms: _57  and  _58
REMARK   22  A    between atoms: _57  and  _60
REMARK   23  A    between atoms: _60  and  _61
REMARK   24  A    between atoms: _64  and  _66
REMARK   25  A    between atoms: _66  and  _67
REMARK   26  A    between atoms: _66  and  _69
REMARK   27  A    between atoms: _69  and  _70
REMARK   28  A    between atoms: _75  and  _77
REMARK   29  A    between atoms: _77  and  _78
REMARK   30  A    between atoms: _77  and  _80
REMARK   31  A    between atoms: _80  and  _81
REMARK   32  A    between atoms: _86  and  _87
REMARK   33  A    between atoms: _89  and  _91
REMARK   34  A    between atoms: _91  and  _92
REMARK   35  A    between atoms: _91  and  _94
REMARK   36  A    between atoms: _94  and  _95
REMARK   37  A    between atoms: _100  and  _102
REMARK   38  A    between atoms: _102  and  _103
REMARK   39  A    between atoms: _102  and  _105
REMARK   40  A    between atoms: _105  and  _106
REMARK   41  A    between atoms: _109  and  _111
REMARK   42  A    between atoms: _111  and  _112
REMARK   43  A    between atoms: _115  and  _117
REMARK   44  A    between atoms: _117  and  _118
REMARK   45  A    between atoms: _117  and  _120
REMARK   46  A    between atoms: _120  and  _121
REMARK   47  A    between atoms: _127  and  _129
REMARK   48  A    between atoms: _129  and  _130
REMARK   49  A    between atoms: _129  and  _132
REMARK   50  A    between atoms: _132  and  _133
REMARK   51  A    between atoms: _133  and  _134
REMARK   52  A    between atoms: _134  and  _135
REMARK   53  A    between atoms: _144  and  _146
REMARK   54  A    between atoms: _146  and  _147
REMARK   55  A    between atoms: _146  and  _149
REMARK   56  A    between atoms: _149  and  _150
REMARK   57  A    between atoms: _150  and  _151
REMARK   58  A    between atoms: _156  and  _158
REMARK   59  A    between atoms: _158  and  _159
REMARK   60  A    between atoms: _158  and  _161
REMARK   61  A    between atoms: _161  and  _162
REMARK   62  A    between atoms: _162  and  _163
REMARK   63  A    between atoms: _166  and  _168
REMARK   64  A    between atoms: _168  and  _169
REMARK   65  A    between atoms: _168  and  _171
REMARK   66  A    between atoms: _174  and  _176
REMARK   67  A    between atoms: _176  and  _177
REMARK   68  A    between atoms: _176  and  _179
REMARK   69  A    between atoms: _179  and  _180
REMARK   70  A    between atoms: _183  and  _185
REMARK   71  A    between atoms: _185  and  _186
REMARK   72  A    between atoms: _185  and  _188
REMARK   73  A    between atoms: _188  and  _189
REMARK   74  A    between atoms: _195  and  _197
REMARK   75  A    between atoms: _197  and  _198
REMARK   76  A    between atoms: _197  and  _200
REMARK   77  A    between atoms: _200  and  _201
REMARK   78  A    between atoms: _206  and  _208
REMARK   79  A    between atoms: _208  and  _209
REMARK   80  A    between atoms: _208  and  _211
REMARK   81  A    between atoms: _211  and  _212
REMARK   82  A    between atoms: _214  and  _216
REMARK   83  A    between atoms: _216  and  _217
REMARK   84  A    between atoms: _216  and  _219
REMARK   85  A    between atoms: _219  and  _220
REMARK   86  A    between atoms: _220  and  _221
REMARK   87  A    between atoms: _221  and  _222
REMARK   88  A    between atoms: _232  and  _233
REMARK   89  A    between atoms: _238  and  _240
REMARK   90  A    between atoms: _240  and  _241
REMARK   91  A    between atoms: _240  and  _243
REMARK   92  A    between atoms: _243  and  _244
REMARK   93  A    between atoms: _254  and  _256
REMARK   94  A    between atoms: _256  and  _257
REMARK   95  A    between atoms: _256  and  _259
REMARK   96  A    between atoms: _259  and  _260
REMARK   97  A    between atoms: _263  and  _265
REMARK   98  A    between atoms: _265  and  _266
REMARK   99  A    between atoms: _265  and  _268
REMARK  100  A    between atoms: _271  and  _273
REMARK  101  A    between atoms: _273  and  _274
REMARK  102  A    between atoms: _273  and  _276
REMARK  103  A    between atoms: _276  and  _277
REMARK  104  A    between atoms: _277  and  _278
REMARK  105  A    between atoms: _281  and  _283
REMARK  106  A    between atoms: _283  and  _284
REMARK  107  A    between atoms: _283  and  _286
REMARK  108  A    between atoms: _286  and  _287
REMARK  109  A    between atoms: _287  and  _288
REMARK  110  A    between atoms: _293  and  _295
REMARK  111  A    between atoms: _295  and  _296
REMARK  112  A    between atoms: _295  and  _298
REMARK  113  A    between atoms: _298  and  _299
REMARK  114  A    between atoms: _299  and  _300
REMARK  115  A    between atoms: _300  and  _301
REMARK  116  A    between atoms: _310  and  _312
REMARK  117  A    between atoms: _312  and  _313
REMARK  118  A    between atoms: _312  and  _315
REMARK  119  A    between atoms: _315  and  _316
REMARK  120  A    between atoms: _316  and  _317
REMARK  121  A    between atoms: _322  and  _324
REMARK  122  A    between atoms: _324  and  _325
REMARK  123  A    between atoms: _324  and  _327
REMARK  124  A    between atoms: _327  and  _328
REMARK                            x       y       z     vdW  Elec       q    Type
REMARK                         _______ _______ _______ _____ _____    ______ ____
ROOT
ATOM      1  O   HOH     1     -20.498  12.738 -26.274  0.00  0.00    +0.000 OA
ENDROOT
TORSDOF 0
REMARK  Name = ../refined-set-2016/3m3c/3m3c_pocket.pdb
REMARK  124 active torsions:
REMARK  status: ('A' for Active; 'I' for Inactive)
REMARK    1  A    between atoms: _1  and  _3
REMARK    2  A    between atoms: _3  and  _4
REMARK    3  A    between atoms: _6  and  _8
REMARK    4  A    between atoms: _8  and  _9
REMARK    5  A    between atoms: _8  and  _11
REMARK    6  A    between atoms: _11  and  _12
REMARK    7  A    between atoms: _18  and  _19
REMARK    8  A    between atoms: _24  and  _26
REMARK    9  A    between atoms: _26  and  _27
REMARK   10  A    between atoms: _26  and  _29
REMARK   11  A    between atoms: _29  and  _30
REMARK   12  A    between atoms: _35  and  _37
REMARK   13  A    between atoms: _37  and  _38
REMARK   14  A    between atoms: _37  and  _40
REMARK   15  A    between atoms: _40  and  _41
REMARK   16  A    between atoms: _46  and  _48
REMARK   17  A    between atoms: _48  and  _49
REMARK   18  A    between atoms: _48  and  _51
REMARK   19  A    between atoms: _51  and  _52
REMARK   20  A    between atoms: _55  and  _57
REMARK   21  A    between atoms: _57  and  _58
REMARK   22  A    between atoms: _57  and  _60
REMARK   23  A    between atoms: _60  and  _61
REMARK   24  A    between atoms: _64  and  _66
REMARK   25  A    between atoms: _66  and  _67
REMARK   26  A    between atoms: _66  and  _69
REMARK   27  A    between atoms: _69  and  _70
REMARK   28  A    between atoms: _75  and  _77
REMARK   29  A    between atoms: _77  and  _78
REMARK   30  A    between atoms: _77  and  _80
REMARK   31  A    between atoms: _80  and  _81
REMARK   32  A    between atoms: _86  and  _87
REMARK   33  A    between atoms: _89  and  _91
REMARK   34  A    between atoms: _91  and  _92
REMARK   35  A    between atoms: _91  and  _94
REMARK   36  A    between atoms: _94  and  _95
REMARK   37  A    between atoms: _100  and  _102
REMARK   38  A    between atoms: _102  and  _103
REMARK   39  A    between atoms: _102  and  _105
REMARK   40  A    between atoms: _105  and  _106
REMARK   41  A    between atoms: _109  and  _111
REMARK   42  A    between atoms: _111  and  _112
REMARK   43  A    between atoms: _115  and  _117
REMARK   44  A    between atoms: _117  and  _118
REMARK   45  A    between atoms: _117  and  _120
REMARK   46  A    between atoms: _120  and  _121
REMARK   47  A    between atoms: _127  and  _129
REMARK   48  A    between atoms: _129  and  _130
REMARK   49  A    between atoms: _129  and  _132
REMARK   50  A    between atoms: _132  and  _133
REMARK   51  A    between atoms: _133  and  _134
REMARK   52  A    between atoms: _134  and  _135
REMARK   53  A    between atoms: _144  and  _146
REMARK   54  A    between atoms: _146  and  _147
REMARK   55  A    between atoms: _146  and  _149
REMARK   56  A    between atoms: _149  and  _150
REMARK   57  A    between atoms: _150  and  _151
REMARK   58  A    between atoms: _156  and  _158
REMARK   59  A    between atoms: _158  and  _159
REMARK   60  A    between atoms: _158  and  _161
REMARK   61  A    between atoms: _161  and  _162
REMARK   62  A    between atoms: _162  and  _163
REMARK   63  A    between atoms: _166  and  _168
REMARK   64  A    between atoms: _168  and  _169
REMARK   65  A    between atoms: _168  and  _171
REMARK   66  A    between atoms: _174  and  _176
REMARK   67  A    between atoms: _176  and  _177
REMARK   68  A    between atoms: _176  and  _179
REMARK   69  A    between atoms: _179  and  _180
REMARK   70  A    between atoms: _183  and  _185
REMARK   71  A    between atoms: _185  and  _186
REMARK   72  A    between atoms: _185  and  _188
REMARK   73  A    between atoms: _188  and  _189
REMARK   74  A    between atoms: _195  and  _197
REMARK   75  A    between atoms: _197  and  _198
REMARK   76  A    between atoms: _197  and  _200
REMARK   77  A    between atoms: _200  and  _201
REMARK   78  A    between atoms: _206  and  _208
REMARK   79  A    between atoms: _208  and  _209
REMARK   80  A    between atoms: _208  and  _211
REMARK   81  A    between atoms: _211  and  _212
REMARK   82  A    between atoms: _214  and  _216
REMARK   83  A    between atoms: _216  and  _217
REMARK   84  A    between atoms: _216  and  _219
REMARK   85  A    between atoms: _219  and  _220
REMARK   86  A    between atoms: _220  and  _221
REMARK   87  A    between atoms: _221  and  _222
REMARK   88  A    between atoms: _232  and  _233
REMARK   89  A    between atoms: _238  and  _240
REMARK   90  A    between atoms: _240  and  _241
REMARK   91  A    between atoms: _240  and  _243
REMARK   92  A    between atoms: _243  and  _244
REMARK   93  A    between atoms: _254  and  _256
REMARK   94  A    between atoms: _256  and  _257
REMARK   95  A    between atoms: _256  and  _259
REMARK   96  A    between atoms: _259  and  _260
REMARK   97  A    between atoms: _263  and  _265
REMARK   98  A    between atoms: _265  and  _266
REMARK   99  A    between atoms: _265  and  _268
REMARK  100  A    between atoms: _271  and  _273
REMARK  101  A    between atoms: _273  and  _274
REMARK  102  A    between atoms: _273  and  _276
REMARK  103  A    between atoms: _276  and  _277
REMARK  104  A    between atoms: _277  and  _278
REMARK  105  A    between atoms: _281  and  _283
REMARK  106  A    between atoms: _283  and  _284
REMARK  107  A    between atoms: _283  and  _286
REMARK  108  A    between atoms: _286  and  _287
REMARK  109  A    between atoms: _287  and  _288
REMARK  110  A    between atoms: _293  and  _295
REMARK  111  A    between atoms: _295  and  _296
REMARK  112  A    between atoms: _295  and  _298
REMARK  113  A    between atoms: _298  and  _299
REMARK  114  A    between atoms: _299  and  _300
REMARK  115  A    between atoms: _300  and  _301
REMARK  116  A    between atoms: _310  and  _312
REMARK  117  A    between atoms: _312  and  _313
REMARK  118  A    between atoms: _312  and  _315
REMARK  119  A    between atoms: _315  and  _316
REMARK  120  A    between atoms: _316  and  _317
REMARK  121  A    between atoms: _322  and  _324
REMARK  122  A    between atoms: _324  and  _325
REMARK  123  A    between atoms: _324  and  _327
REMARK  124  A    between atoms: _327  and  _328
REMARK                            x       y       z     vdW  Elec       q    Type
REMARK                         _______ _______ _______ _____ _____    ______ ____
ROOT
ATOM      1  O   HOH     1     -17.928  11.966 -28.906  0.00  0.00    +0.000 OA
ENDROOT
TORSDOF 0
REMARK  Name = ../refined-set-2016/3m3c/3m3c_pocket.pdb
REMARK  124 active torsions:
REMARK  status: ('A' for Active; 'I' for Inactive)
REMARK    1  A    between atoms: _1  and  _3
REMARK    2  A    between atoms: _3  and  _4
REMARK    3  A    between atoms: _6  and  _8
REMARK    4  A    between atoms: _8  and  _9
REMARK    5  A    between atoms: _8  and  _11
REMARK    6  A    between atoms: _11  and  _12
REMARK    7  A    between atoms: _18  and  _19
REMARK    8  A    between atoms: _24  and  _26
REMARK    9  A    between atoms: _26  and  _27
REMARK   10  A    between atoms: _26  and  _29
REMARK   11  A    between atoms: _29  and  _30
REMARK   12  A    between atoms: _35  and  _37
REMARK   13  A    between atoms: _37  and  _38
REMARK   14  A    between atoms: _37  and  _40
REMARK   15  A    between atoms: _40  and  _41
REMARK   16  A    between atoms: _46  and  _48
REMARK   17  A    between atoms: _48  and  _49
REMARK   18  A    between atoms: _48  and  _51
REMARK   19  A    between atoms: _51  and  _52
REMARK   20  A    between atoms: _55  and  _57
REMARK   21  A    between atoms: _57  and  _58
REMARK   22  A    between atoms: _57  and  _60
REMARK   23  A    between atoms: _60  and  _61
REMARK   24  A    between atoms: _64  and  _66
REMARK   25  A    between atoms: _66  and  _67
REMARK   26  A    between atoms: _66  and  _69
REMARK   27  A    between atoms: _69  and  _70
REMARK   28  A    between atoms: _75  and  _77
REMARK   29  A    between atoms: _77  and  _78
REMARK   30  A    between atoms: _77  and  _80
REMARK   31  A    between atoms: _80  and  _81
REMARK   32  A    between atoms: _86  and  _87
REMARK   33  A    between atoms: _89  and  _91
REMARK   34  A    between atoms: _91  and  _92
REMARK   35  A    between atoms: _91  and  _94
REMARK   36  A    between atoms: _94  and  _95
REMARK   37  A    between atoms: _100  and  _102
REMARK   38  A    between atoms: _102  and  _103
REMARK   39  A    between atoms: _102  and  _105
REMARK   40  A    between atoms: _105  and  _106
REMARK   41  A    between atoms: _109  and  _111
REMARK   42  A    between atoms: _111  and  _112
REMARK   43  A    between atoms: _115  and  _117
REMARK   44  A    between atoms: _117  and  _118
REMARK   45  A    between atoms: _117  and  _120
REMARK   46  A    between atoms: _120  and  _121
REMARK   47  A    between atoms: _127  and  _129
REMARK   48  A    between atoms: _129  and  _130
REMARK   49  A    between atoms: _129  and  _132
REMARK   50  A    between atoms: _132  and  _133
REMARK   51  A    between atoms: _133  and  _134
REMARK   52  A    between atoms: _134  and  _135
REMARK   53  A    between atoms: _144  and  _146
REMARK   54  A    between atoms: _146  and  _147
REMARK   55  A    between atoms: _146  and  _149
REMARK   56  A    between atoms: _149  and  _150
REMARK   57  A    between atoms: _150  and  _151
REMARK   58  A    between atoms: _156  and  _158
REMARK   59  A    between atoms: _158  and  _159
REMARK   60  A    between atoms: _158  and  _161
REMARK   61  A    between atoms: _161  and  _162
REMARK   62  A    between atoms: _162  and  _163
REMARK   63  A    between atoms: _166  and  _168
REMARK   64  A    between atoms: _168  and  _169
REMARK   65  A    between atoms: _168  and  _171
REMARK   66  A    between atoms: _174  and  _176
REMARK   67  A    between atoms: _176  and  _177
REMARK   68  A    between atoms: _176  and  _179
REMARK   69  A    between atoms: _179  and  _180
REMARK   70  A    between atoms: _183  and  _185
REMARK   71  A    between atoms: _185  and  _186
REMARK   72  A    between atoms: _185  and  _188
REMARK   73  A    between atoms: _188  and  _189
REMARK   74  A    between atoms: _195  and  _197
REMARK   75  A    between atoms: _197  and  _198
REMARK   76  A    between atoms: _197  and  _200
REMARK   77  A    between atoms: _200  and  _201
REMARK   78  A    between atoms: _206  and  _208
REMARK   79  A    between atoms: _208  and  _209
REMARK   80  A    between atoms: _208  and  _211
REMARK   81  A    between atoms: _211  and  _212
REMARK   82  A    between atoms: _214  and  _216
REMARK   83  A    between atoms: _216  and  _217
REMARK   84  A    between atoms: _216  and  _219
REMARK   85  A    between atoms: _219  and  _220
REMARK   86  A    between atoms: _220  and  _221
REMARK   87  A    between atoms: _221  and  _222
REMARK   88  A    between atoms: _232  and  _233
REMARK   89  A    between atoms: _238  and  _240
REMARK   90  A    between atoms: _240  and  _241
REMARK   91  A    between atoms: _240  and  _243
REMARK   92  A    between atoms: _243  and  _244
REMARK   93  A    between atoms: _254  and  _256
REMARK   94  A    between atoms: _256  and  _257
REMARK   95  A    between atoms: _256  and  _259
REMARK   96  A    between atoms: _259  and  _260
REMARK   97  A    between atoms: _263  and  _265
REMARK   98  A    between atoms: _265  and  _266
REMARK   99  A    between atoms: _265  and  _268
REMARK  100  A    between atoms: _271  and  _273
REMARK  101  A    between atoms: _273  and  _274
REMARK  102  A    between atoms: _273  and  _276
REMARK  103  A    between atoms: _276  and  _277
REMARK  104  A    between atoms: _277  and  _278
REMARK  105  A    between atoms: _281  and  _283
REMARK  106  A    between atoms: _283  and  _284
REMARK  107  A    between atoms: _283  and  _286
REMARK  108  A    between atoms: _286  and  _287
REMARK  109  A    between atoms: _287  and  _288
REMARK  110  A    between atoms: _293  and  _295
REMARK  111  A    between atoms: _295  and  _296
REMARK  112  A    between atoms: _295  and  _298
REMARK  113  A    between atoms: _298  and  _299
REMARK  114  A    between atoms: _299  and  _300
REMARK  115  A    between atoms: _300  and  _301
REMARK  116  A    between atoms: _310  and  _312
REMARK  117  A    between atoms: _312  and  _313
REMARK  118  A    between atoms: _312  and  _315
REMARK  119  A    between atoms: _315  and  _316
REMARK  120  A    between atoms: _316  and  _317
REMARK  121  A    between atoms: _322  and  _324
REMARK  122  A    between atoms: _324  and  _325
REMARK  123  A    between atoms: _324  and  _327
REMARK  124  A    between atoms: _327  and  _328
REMARK                            x       y       z     vdW  Elec       q    Type
REMARK                         _______ _______ _______ _____ _____    ______ ____
ROOT
ATOM      1  O   HOH     1     -14.215  20.057 -28.174  0.00  0.00    +0.000 OA
ENDROOT
TORSDOF 0
REMARK  Name = ../refined-set-2016/3m3c/3m3c_pocket.pdb
REMARK  124 active torsions:
REMARK  status: ('A' for Active; 'I' for Inactive)
REMARK    1  A    between atoms: _1  and  _3
REMARK    2  A    between atoms: _3  and  _4
REMARK    3  A    between atoms: _6  and  _8
REMARK    4  A    between atoms: _8  and  _9
REMARK    5  A    between atoms: _8  and  _11
REMARK    6  A    between atoms: _11  and  _12
REMARK    7  A    between atoms: _18  and  _19
REMARK    8  A    between atoms: _24  and  _26
REMARK    9  A    between atoms: _26  and  _27
REMARK   10  A    between atoms: _26  and  _29
REMARK   11  A    between atoms: _29  and  _30
REMARK   12  A    between atoms: _35  and  _37
REMARK   13  A    between atoms: _37  and  _38
REMARK   14  A    between atoms: _37  and  _40
REMARK   15  A    between atoms: _40  and  _41
REMARK   16  A    between atoms: _46  and  _48
REMARK   17  A    between atoms: _48  and  _49
REMARK   18  A    between atoms: _48  and  _51
REMARK   19  A    between atoms: _51  and  _52
REMARK   20  A    between atoms: _55  and  _57
REMARK   21  A    between atoms: _57  and  _58
REMARK   22  A    between atoms: _57  and  _60
REMARK   23  A    between atoms: _60  and  _61
REMARK   24  A    between atoms: _64  and  _66
REMARK   25  A    between atoms: _66  and  _67
REMARK   26  A    between atoms: _66  and  _69
REMARK   27  A    between atoms: _69  and  _70
REMARK   28  A    between atoms: _75  and  _77
REMARK   29  A    between atoms: _77  and  _78
REMARK   30  A    between atoms: _77  and  _80
REMARK   31  A    between atoms: _80  and  _81
REMARK   32  A    between atoms: _86  and  _87
REMARK   33  A    between atoms: _89  and  _91
REMARK   34  A    between atoms: _91  and  _92
REMARK   35  A    between atoms: _91  and  _94
REMARK   36  A    between atoms: _94  and  _95
REMARK   37  A    between atoms: _100  and  _102
REMARK   38  A    between atoms: _102  and  _103
REMARK   39  A    between atoms: _102  and  _105
REMARK   40  A    between atoms: _105  and  _106
REMARK   41  A    between atoms: _109  and  _111
REMARK   42  A    between atoms: _111  and  _112
REMARK   43  A    between atoms: _115  and  _117
REMARK   44  A    between atoms: _117  and  _118
REMARK   45  A    between atoms: _117  and  _120
REMARK   46  A    between atoms: _120  and  _121
REMARK   47  A    between atoms: _127  and  _129
REMARK   48  A    between atoms: _129  and  _130
REMARK   49  A    between atoms: _129  and  _132
REMARK   50  A    between atoms: _132  and  _133
REMARK   51  A    between atoms: _133  and  _134
REMARK   52  A    between atoms: _134  and  _135
REMARK   53  A    between atoms: _144  and  _146
REMARK   54  A    between atoms: _146  and  _147
REMARK   55  A    between atoms: _146  and  _149
REMARK   56  A    between atoms: _149  and  _150
REMARK   57  A    between atoms: _150  and  _151
REMARK   58  A    between atoms: _156  and  _158
REMARK   59  A    between atoms: _158  and  _159
REMARK   60  A    between atoms: _158  and  _161
REMARK   61  A    between atoms: _161  and  _162
REMARK   62  A    between atoms: _162  and  _163
REMARK   63  A    between atoms: _166  and  _168
REMARK   64  A    between atoms: _168  and  _169
REMARK   65  A    between atoms: _168  and  _171
REMARK   66  A    between atoms: _174  and  _176
REMARK   67  A    between atoms: _176  and  _177
REMARK   68  A    between atoms: _176  and  _179
REMARK   69  A    between atoms: _179  and  _180
REMARK   70  A    between atoms: _183  and  _185
REMARK   71  A    between atoms: _185  and  _186
REMARK   72  A    between atoms: _185  and  _188
REMARK   73  A    between atoms: _188  and  _189
REMARK   74  A    between atoms: _195  and  _197
REMARK   75  A    between atoms: _197  and  _198
REMARK   76  A    between atoms: _197  and  _200
REMARK   77  A    between atoms: _200  and  _201
REMARK   78  A    between atoms: _206  and  _208
REMARK   79  A    between atoms: _208  and  _209
REMARK   80  A    between atoms: _208  and  _211
REMARK   81  A    between atoms: _211  and  _212
REMARK   82  A    between atoms: _214  and  _216
REMARK   83  A    between atoms: _216  and  _217
REMARK   84  A    between atoms: _216  and  _219
REMARK   85  A    between atoms: _219  and  _220
REMARK   86  A    between atoms: _220  and  _221
REMARK   87  A    between atoms: _221  and  _222
REMARK   88  A    between atoms: _232  and  _233
REMARK   89  A    between atoms: _238  and  _240
REMARK   90  A    between atoms: _240  and  _241
REMARK   91  A    between atoms: _240  and  _243
REMARK   92  A    between atoms: _243  and  _244
REMARK   93  A    between atoms: _254  and  _256
REMARK   94  A    between atoms: _256  and  _257
REMARK   95  A    between atoms: _256  and  _259
REMARK   96  A    between atoms: _259  and  _260
REMARK   97  A    between atoms: _263  and  _265
REMARK   98  A    between atoms: _265  and  _266
REMARK   99  A    between atoms: _265  and  _268
REMARK  100  A    between atoms: _271  and  _273
REMARK  101  A    between atoms: _273  and  _274
REMARK  102  A    between atoms: _273  and  _276
REMARK  103  A    between atoms: _276  and  _277
REMARK  104  A    between atoms: _277  and  _278
REMARK  105  A    between atoms: _281  and  _283
REMARK  106  A    between atoms: _283  and  _284
REMARK  107  A    between atoms: _283  and  _286
REMARK  108  A    between atoms: _286  and  _287
REMARK  109  A    between atoms: _287  and  _288
REMARK  110  A    between atoms: _293  and  _295
REMARK  111  A    between atoms: _295  and  _296
REMARK  112  A    between atoms: _295  and  _298
REMARK  113  A    between atoms: _298  and  _299
REMARK  114  A    between atoms: _299  and  _300
REMARK  115  A    between atoms: _300  and  _301
REMARK  116  A    between atoms: _310  and  _312
REMARK  117  A    between atoms: _312  and  _313
REMARK  118  A    between atoms: _312  and  _315
REMARK  119  A    between atoms: _315  and  _316
REMARK  120  A    between atoms: _316  and  _317
REMARK  121  A    between atoms: _322  and  _324
REMARK  122  A    between atoms: _324  and  _325
REMARK  123  A    between atoms: _324  and  _327
REMARK  124  A    between atoms: _327  and  _328
REMARK                            x       y       z     vdW  Elec       q    Type
REMARK                         _______ _______ _______ _____ _____    ______ ____
ROOT
ATOM      1  O   HOH     1     -13.090  17.386 -27.910  0.00  0.00    +0.000 OA
ENDROOT
TORSDOF 0
REMARK  Name = ../refined-set-2016/3m3c/3m3c_pocket.pdb
REMARK  124 active torsions:
REMARK  status: ('A' for Active; 'I' for Inactive)
REMARK    1  A    between atoms: _1  and  _3
REMARK    2  A    between atoms: _3  and  _4
REMARK    3  A    between atoms: _6  and  _8
REMARK    4  A    between atoms: _8  and  _9
REMARK    5  A    between atoms: _8  and  _11
REMARK    6  A    between atoms: _11  and  _12
REMARK    7  A    between atoms: _18  and  _19
REMARK    8  A    between atoms: _24  and  _26
REMARK    9  A    between atoms: _26  and  _27
REMARK   10  A    between atoms: _26  and  _29
REMARK   11  A    between atoms: _29  and  _30
REMARK   12  A    between atoms: _35  and  _37
REMARK   13  A    between atoms: _37  and  _38
REMARK   14  A    between atoms: _37  and  _40
REMARK   15  A    between atoms: _40  and  _41
REMARK   16  A    between atoms: _46  and  _48
REMARK   17  A    between atoms: _48  and  _49
REMARK   18  A    between atoms: _48  and  _51
REMARK   19  A    between atoms: _51  and  _52
REMARK   20  A    between atoms: _55  and  _57
REMARK   21  A    between atoms: _57  and  _58
REMARK   22  A    between atoms: _57  and  _60
REMARK   23  A    between atoms: _60  and  _61
REMARK   24  A    between atoms: _64  and  _66
REMARK   25  A    between atoms: _66  and  _67
REMARK   26  A    between atoms: _66  and  _69
REMARK   27  A    between atoms: _69  and  _70
REMARK   28  A    between atoms: _75  and  _77
REMARK   29  A    between atoms: _77  and  _78
REMARK   30  A    between atoms: _77  and  _80
REMARK   31  A    between atoms: _80  and  _81
REMARK   32  A    between atoms: _86  and  _87
REMARK   33  A    between atoms: _89  and  _91
REMARK   34  A    between atoms: _91  and  _92
REMARK   35  A    between atoms: _91  and  _94
REMARK   36  A    between atoms: _94  and  _95
REMARK   37  A    between atoms: _100  and  _102
REMARK   38  A    between atoms: _102  and  _103
REMARK   39  A    between atoms: _102  and  _105
REMARK   40  A    between atoms: _105  and  _106
REMARK   41  A    between atoms: _109  and  _111
REMARK   42  A    between atoms: _111  and  _112
REMARK   43  A    between atoms: _115  and  _117
REMARK   44  A    between atoms: _117  and  _118
REMARK   45  A    between atoms: _117  and  _120
REMARK   46  A    between atoms: _120  and  _121
REMARK   47  A    between atoms: _127  and  _129
REMARK   48  A    between atoms: _129  and  _130
REMARK   49  A    between atoms: _129  and  _132
REMARK   50  A    between atoms: _132  and  _133
REMARK   51  A    between atoms: _133  and  _134
REMARK   52  A    between atoms: _134  and  _135
REMARK   53  A    between atoms: _144  and  _146
REMARK   54  A    between atoms: _146  and  _147
REMARK   55  A    between atoms: _146  and  _149
REMARK   56  A    between atoms: _149  and  _150
REMARK   57  A    between atoms: _150  and  _151
REMARK   58  A    between atoms: _156  and  _158
REMARK   59  A    between atoms: _158  and  _159
REMARK   60  A    between atoms: _158  and  _161
REMARK   61  A    between atoms: _161  and  _162
REMARK   62  A    between atoms: _162  and  _163
REMARK   63  A    between atoms: _166  and  _168
REMARK   64  A    between atoms: _168  and  _169
REMARK   65  A    between atoms: _168  and  _171
REMARK   66  A    between atoms: _174  and  _176
REMARK   67  A    between atoms: _176  and  _177
REMARK   68  A    between atoms: _176  and  _179
REMARK   69  A    between atoms: _179  and  _180
REMARK   70  A    between atoms: _183  and  _185
REMARK   71  A    between atoms: _185  and  _186
REMARK   72  A    between atoms: _185  and  _188
REMARK   73  A    between atoms: _188  and  _189
REMARK   74  A    between atoms: _195  and  _197
REMARK   75  A    between atoms: _197  and  _198
REMARK   76  A    between atoms: _197  and  _200
REMARK   77  A    between atoms: _200  and  _201
REMARK   78  A    between atoms: _206  and  _208
REMARK   79  A    between atoms: _208  and  _209
REMARK   80  A    between atoms: _208  and  _211
REMARK   81  A    between atoms: _211  and  _212
REMARK   82  A    between atoms: _214  and  _216
REMARK   83  A    between atoms: _216  and  _217
REMARK   84  A    between atoms: _216  and  _219
REMARK   85  A    between atoms: _219  and  _220
REMARK   86  A    between atoms: _220  and  _221
REMARK   87  A    between atoms: _221  and  _222
REMARK   88  A    between atoms: _232  and  _233
REMARK   89  A    between atoms: _238  and  _240
REMARK   90  A    between atoms: _240  and  _241
REMARK   91  A    between atoms: _240  and  _243
REMARK   92  A    between atoms: _243  and  _244
REMARK   93  A    between atoms: _254  and  _256
REMARK   94  A    between atoms: _256  and  _257
REMARK   95  A    between atoms: _256  and  _259
REMARK   96  A    between atoms: _259  and  _260
REMARK   97  A    between atoms: _263  and  _265
REMARK   98  A    between atoms: _265  and  _266
REMARK   99  A    between atoms: _265  and  _268
REMARK  100  A    between atoms: _271  and  _273
REMARK  101  A    between atoms: _273  and  _274
REMARK  102  A    between atoms: _273  and  _276
REMARK  103  A    between atoms: _276  and  _277
REMARK  104  A    between atoms: _277  and  _278
REMARK  105  A    between atoms: _281  and  _283
REMARK  106  A    between atoms: _283  and  _284
REMARK  107  A    between atoms: _283  and  _286
REMARK  108  A    between atoms: _286  and  _287
REMARK  109  A    between atoms: _287  and  _288
REMARK  110  A    between atoms: _293  and  _295
REMARK  111  A    between atoms: _295  and  _296
REMARK  112  A    between atoms: _295  and  _298
REMARK  113  A    between atoms: _298  and  _299
REMARK  114  A    between atoms: _299  and  _300
REMARK  115  A    between atoms: _300  and  _301
REMARK  116  A    between atoms: _310  and  _312
REMARK  117  A    between atoms: _312  and  _313
REMARK  118  A    between atoms: _312  and  _315
REMARK  119  A    between atoms: _315  and  _316
REMARK  120  A    between atoms: _316  and  _317
REMARK  121  A    between atoms: _322  and  _324
REMARK  122  A    between atoms: _324  and  _325
REMARK  123  A    between atoms: _324  and  _327
REMARK  124  A    between atoms: _327  and  _328
REMARK                            x       y       z     vdW  Elec       q    Type
REMARK                         _______ _______ _______ _____ _____    ______ ____
ROOT
ATOM      1  O   HOH     1     -16.485   0.229 -29.047  0.00  0.00    +0.000 OA
ENDROOT
TORSDOF 0
REMARK  Name = ../refined-set-2016/3m3c/3m3c_pocket.pdb
REMARK  124 active torsions:
REMARK  status: ('A' for Active; 'I' for Inactive)
REMARK    1  A    between atoms: _1  and  _3
REMARK    2  A    between atoms: _3  and  _4
REMARK    3  A    between atoms: _6  and  _8
REMARK    4  A    between atoms: _8  and  _9
REMARK    5  A    between atoms: _8  and  _11
REMARK    6  A    between atoms: _11  and  _12
REMARK    7  A    between atoms: _18  and  _19
REMARK    8  A    between atoms: _24  and  _26
REMARK    9  A    between atoms: _26  and  _27
REMARK   10  A    between atoms: _26  and  _29
REMARK   11  A    between atoms: _29  and  _30
REMARK   12  A    between atoms: _35  and  _37
REMARK   13  A    between atoms: _37  and  _38
REMARK   14  A    between atoms: _37  and  _40
REMARK   15  A    between atoms: _40  and  _41
REMARK   16  A    between atoms: _46  and  _48
REMARK   17  A    between atoms: _48  and  _49
REMARK   18  A    between atoms: _48  and  _51
REMARK   19  A    between atoms: _51  and  _52
REMARK   20  A    between atoms: _55  and  _57
REMARK   21  A    between atoms: _57  and  _58
REMARK   22  A    between atoms: _57  and  _60
REMARK   23  A    between atoms: _60  and  _61
REMARK   24  A    between atoms: _64  and  _66
REMARK   25  A    between atoms: _66  and  _67
REMARK   26  A    between atoms: _66  and  _69
REMARK   27  A    between atoms: _69  and  _70
REMARK   28  A    between atoms: _75  and  _77
REMARK   29  A    between atoms: _77  and  _78
REMARK   30  A    between atoms: _77  and  _80
REMARK   31  A    between atoms: _80  and  _81
REMARK   32  A    between atoms: _86  and  _87
REMARK   33  A    between atoms: _89  and  _91
REMARK   34  A    between atoms: _91  and  _92
REMARK   35  A    between atoms: _91  and  _94
REMARK   36  A    between atoms: _94  and  _95
REMARK   37  A    between atoms: _100  and  _102
REMARK   38  A    between atoms: _102  and  _103
REMARK   39  A    between atoms: _102  and  _105
REMARK   40  A    between atoms: _105  and  _106
REMARK   41  A    between atoms: _109  and  _111
REMARK   42  A    between atoms: _111  and  _112
REMARK   43  A    between atoms: _115  and  _117
REMARK   44  A    between atoms: _117  and  _118
REMARK   45  A    between atoms: _117  and  _120
REMARK   46  A    between atoms: _120  and  _121
REMARK   47  A    between atoms: _127  and  _129
REMARK   48  A    between atoms: _129  and  _130
REMARK   49  A    between atoms: _129  and  _132
REMARK   50  A    between atoms: _132  and  _133
REMARK   51  A    between atoms: _133  and  _134
REMARK   52  A    between atoms: _134  and  _135
REMARK   53  A    between atoms: _144  and  _146
REMARK   54  A    between atoms: _146  and  _147
REMARK   55  A    between atoms: _146  and  _149
REMARK   56  A    between atoms: _149  and  _150
REMARK   57  A    between atoms: _150  and  _151
REMARK   58  A    between atoms: _156  and  _158
REMARK   59  A    between atoms: _158  and  _159
REMARK   60  A    between atoms: _158  and  _161
REMARK   61  A    between atoms: _161  and  _162
REMARK   62  A    between atoms: _162  and  _163
REMARK   63  A    between atoms: _166  and  _168
REMARK   64  A    between atoms: _168  and  _169
REMARK   65  A    between atoms: _168  and  _171
REMARK   66  A    between atoms: _174  and  _176
REMARK   67  A    between atoms: _176  and  _177
REMARK   68  A    between atoms: _176  and  _179
REMARK   69  A    between atoms: _179  and  _180
REMARK   70  A    between atoms: _183  and  _185
REMARK   71  A    between atoms: _185  and  _186
REMARK   72  A    between atoms: _185  and  _188
REMARK   73  A    between atoms: _188  and  _189
REMARK   74  A    between atoms: _195  and  _197
REMARK   75  A    between atoms: _197  and  _198
REMARK   76  A    between atoms: _197  and  _200
REMARK   77  A    between atoms: _200  and  _201
REMARK   78  A    between atoms: _206  and  _208
REMARK   79  A    between atoms: _208  and  _209
REMARK   80  A    between atoms: _208  and  _211
REMARK   81  A    between atoms: _211  and  _212
REMARK   82  A    between atoms: _214  and  _216
REMARK   83  A    between atoms: _216  and  _217
REMARK   84  A    between atoms: _216  and  _219
REMARK   85  A    between atoms: _219  and  _220
REMARK   86  A    between atoms: _220  and  _221
REMARK   87  A    between atoms: _221  and  _222
REMARK   88  A    between atoms: _232  and  _233
REMARK   89  A    between atoms: _238  and  _240
REMARK   90  A    between atoms: _240  and  _241
REMARK   91  A    between atoms: _240  and  _243
REMARK   92  A    between atoms: _243  and  _244
REMARK   93  A    between atoms: _254  and  _256
REMARK   94  A    between atoms: _256  and  _257
REMARK   95  A    between atoms: _256  and  _259
REMARK   96  A    between atoms: _259  and  _260
REMARK   97  A    between atoms: _263  and  _265
REMARK   98  A    between atoms: _265  and  _266
REMARK   99  A    between atoms: _265  and  _268
REMARK  100  A    between atoms: _271  and  _273
REMARK  101  A    between atoms: _273  and  _274
REMARK  102  A    between atoms: _273  and  _276
REMARK  103  A    between atoms: _276  and  _277
REMARK  104  A    between atoms: _277  and  _278
REMARK  105  A    between atoms: _281  and  _283
REMARK  106  A    between atoms: _283  and  _284
REMARK  107  A    between atoms: _283  and  _286
REMARK  108  A    between atoms: _286  and  _287
REMARK  109  A    between atoms: _287  and  _288
REMARK  110  A    between atoms: _293  and  _295
REMARK  111  A    between atoms: _295  and  _296
REMARK  112  A    between atoms: _295  and  _298
REMARK  113  A    between atoms: _298  and  _299
REMARK  114  A    between atoms: _299  and  _300
REMARK  115  A    between atoms: _300  and  _301
REMARK  116  A    between atoms: _310  and  _312
REMARK  117  A    between atoms: _312  and  _313
REMARK  118  A    between atoms: _312  and  _315
REMARK  119  A    between atoms: _315  and  _316
REMARK  120  A    between atoms: _316  and  _317
REMARK  121  A    between atoms: _322  and  _324
REMARK  122  A    between atoms: _324  and  _325
REMARK  123  A    between atoms: _324  and  _327
REMARK  124  A    between atoms: _327  and  _328
REMARK                            x       y       z     vdW  Elec       q    Type
REMARK                         _______ _______ _______ _____ _____    ______ ____
ROOT
ATOM      1  O   HOH     1     -15.704   4.972 -25.270  0.00  0.00    +0.000 OA
ENDROOT
TORSDOF 0
REMARK  Name = ../refined-set-2016/3m3c/3m3c_pocket.pdb
REMARK  124 active torsions:
REMARK  status: ('A' for Active; 'I' for Inactive)
REMARK    1  A    between atoms: _1  and  _3
REMARK    2  A    between atoms: _3  and  _4
REMARK    3  A    between atoms: _6  and  _8
REMARK    4  A    between atoms: _8  and  _9
REMARK    5  A    between atoms: _8  and  _11
REMARK    6  A    between atoms: _11  and  _12
REMARK    7  A    between atoms: _18  and  _19
REMARK    8  A    between atoms: _24  and  _26
REMARK    9  A    between atoms: _26  and  _27
REMARK   10  A    between atoms: _26  and  _29
REMARK   11  A    between atoms: _29  and  _30
REMARK   12  A    between atoms: _35  and  _37
REMARK   13  A    between atoms: _37  and  _38
REMARK   14  A    between atoms: _37  and  _40
REMARK   15  A    between atoms: _40  and  _41
REMARK   16  A    between atoms: _46  and  _48
REMARK   17  A    between atoms: _48  and  _49
REMARK   18  A    between atoms: _48  and  _51
REMARK   19  A    between atoms: _51  and  _52
REMARK   20  A    between atoms: _55  and  _57
REMARK   21  A    between atoms: _57  and  _58
REMARK   22  A    between atoms: _57  and  _60
REMARK   23  A    between atoms: _60  and  _61
REMARK   24  A    between atoms: _64  and  _66
REMARK   25  A    between atoms: _66  and  _67
REMARK   26  A    between atoms: _66  and  _69
REMARK   27  A    between atoms: _69  and  _70
REMARK   28  A    between atoms: _75  and  _77
REMARK   29  A    between atoms: _77  and  _78
REMARK   30  A    between atoms: _77  and  _80
REMARK   31  A    between atoms: _80  and  _81
REMARK   32  A    between atoms: _86  and  _87
REMARK   33  A    between atoms: _89  and  _91
REMARK   34  A    between atoms: _91  and  _92
REMARK   35  A    between atoms: _91  and  _94
REMARK   36  A    between atoms: _94  and  _95
REMARK   37  A    between atoms: _100  and  _102
REMARK   38  A    between atoms: _102  and  _103
REMARK   39  A    between atoms: _102  and  _105
REMARK   40  A    between atoms: _105  and  _106
REMARK   41  A    between atoms: _109  and  _111
REMARK   42  A    between atoms: _111  and  _112
REMARK   43  A    between atoms: _115  and  _117
REMARK   44  A    between atoms: _117  and  _118
REMARK   45  A    between atoms: _117  and  _120
REMARK   46  A    between atoms: _120  and  _121
REMARK   47  A    between atoms: _127  and  _129
REMARK   48  A    between atoms: _129  and  _130
REMARK   49  A    between atoms: _129  and  _132
REMARK   50  A    between atoms: _132  and  _133
REMARK   51  A    between atoms: _133  and  _134
REMARK   52  A    between atoms: _134  and  _135
REMARK   53  A    between atoms: _144  and  _146
REMARK   54  A    between atoms: _146  and  _147
REMARK   55  A    between atoms: _146  and  _149
REMARK   56  A    between atoms: _149  and  _150
REMARK   57  A    between atoms: _150  and  _151
REMARK   58  A    between atoms: _156  and  _158
REMARK   59  A    between atoms: _158  and  _159
REMARK   60  A    between atoms: _158  and  _161
REMARK   61  A    between atoms: _161  and  _162
REMARK   62  A    between atoms: _162  and  _163
REMARK   63  A    between atoms: _166  and  _168
REMARK   64  A    between atoms: _168  and  _169
REMARK   65  A    between atoms: _168  and  _171
REMARK   66  A    between atoms: _174  and  _176
REMARK   67  A    between atoms: _176  and  _177
REMARK   68  A    between atoms: _176  and  _179
REMARK   69  A    between atoms: _179  and  _180
REMARK   70  A    between atoms: _183  and  _185
REMARK   71  A    between atoms: _185  and  _186
REMARK   72  A    between atoms: _185  and  _188
REMARK   73  A    between atoms: _188  and  _189
REMARK   74  A    between atoms: _195  and  _197
REMARK   75  A    between atoms: _197  and  _198
REMARK   76  A    between atoms: _197  and  _200
REMARK   77  A    between atoms: _200  and  _201
REMARK   78  A    between atoms: _206  and  _208
REMARK   79  A    between atoms: _208  and  _209
REMARK   80  A    between atoms: _208  and  _211
REMARK   81  A    between atoms: _211  and  _212
REMARK   82  A    between atoms: _214  and  _216
REMARK   83  A    between atoms: _216  and  _217
REMARK   84  A    between atoms: _216  and  _219
REMARK   85  A    between atoms: _219  and  _220
REMARK   86  A    between atoms: _220  and  _221
REMARK   87  A    between atoms: _221  and  _222
REMARK   88  A    between atoms: _232  and  _233
REMARK   89  A    between atoms: _238  and  _240
REMARK   90  A    between atoms: _240  and  _241
REMARK   91  A    between atoms: _240  and  _243
REMARK   92  A    between atoms: _243  and  _244
REMARK   93  A    between atoms: _254  and  _256
REMARK   94  A    between atoms: _256  and  _257
REMARK   95  A    between atoms: _256  and  _259
REMARK   96  A    between atoms: _259  and  _260
REMARK   97  A    between atoms: _263  and  _265
REMARK   98  A    between atoms: _265  and  _266
REMARK   99  A    between atoms: _265  and  _268
REMARK  100  A    between atoms: _271  and  _273
REMARK  101  A    between atoms: _273  and  _274
REMARK  102  A    between atoms: _273  and  _276
REMARK  103  A    between atoms: _276  and  _277
REMARK  104  A    between atoms: _277  and  _278
REMARK  105  A    between atoms: _281  and  _283
REMARK  106  A    between atoms: _283  and  _284
REMARK  107  A    between atoms: _283  and  _286
REMARK  108  A    between atoms: _286  and  _287
REMARK  109  A    between atoms: _287  and  _288
REMARK  110  A    between atoms: _293  and  _295
REMARK  111  A    between atoms: _295  and  _296
REMARK  112  A    between atoms: _295  and  _298
REMARK  113  A    between atoms: _298  and  _299
REMARK  114  A    between atoms: _299  and  _300
REMARK  115  A    between atoms: _300  and  _301
REMARK  116  A    between atoms: _310  and  _312
REMARK  117  A    between atoms: _312  and  _313
REMARK  118  A    between atoms: _312  and  _315
REMARK  119  A    between atoms: _315  and  _316
REMARK  120  A    between atoms: _316  and  _317
REMARK  121  A    between atoms: _322  and  _324
REMARK  122  A    between atoms: _324  and  _325
REMARK  123  A    between atoms: _324  and  _327
REMARK  124  A    between atoms: _327  and  _328
REMARK                            x       y       z     vdW  Elec       q    Type
REMARK                         _______ _______ _______ _____ _____    ______ ____
ROOT
ATOM      1  O   HOH     1     -14.949   3.760 -35.701  0.00  0.00    +0.000 OA
ENDROOT
TORSDOF 0
REMARK  Name = ../refined-set-2016/3m3c/3m3c_pocket.pdb
REMARK  124 active torsions:
REMARK  status: ('A' for Active; 'I' for Inactive)
REMARK    1  A    between atoms: _1  and  _3
REMARK    2  A    between atoms: _3  and  _4
REMARK    3  A    between atoms: _6  and  _8
REMARK    4  A    between atoms: _8  and  _9
REMARK    5  A    between atoms: _8  and  _11
REMARK    6  A    between atoms: _11  and  _12
REMARK    7  A    between atoms: _18  and  _19
REMARK    8  A    between atoms: _24  and  _26
REMARK    9  A    between atoms: _26  and  _27
REMARK   10  A    between atoms: _26  and  _29
REMARK   11  A    between atoms: _29  and  _30
REMARK   12  A    between atoms: _35  and  _37
REMARK   13  A    between atoms: _37  and  _38
REMARK   14  A    between atoms: _37  and  _40
REMARK   15  A    between atoms: _40  and  _41
REMARK   16  A    between atoms: _46  and  _48
REMARK   17  A    between atoms: _48  and  _49
REMARK   18  A    between atoms: _48  and  _51
REMARK   19  A    between atoms: _51  and  _52
REMARK   20  A    between atoms: _55  and  _57
REMARK   21  A    between atoms: _57  and  _58
REMARK   22  A    between atoms: _57  and  _60
REMARK   23  A    between atoms: _60  and  _61
REMARK   24  A    between atoms: _64  and  _66
REMARK   25  A    between atoms: _66  and  _67
REMARK   26  A    between atoms: _66  and  _69
REMARK   27  A    between atoms: _69  and  _70
REMARK   28  A    between atoms: _75  and  _77
REMARK   29  A    between atoms: _77  and  _78
REMARK   30  A    between atoms: _77  and  _80
REMARK   31  A    between atoms: _80  and  _81
REMARK   32  A    between atoms: _86  and  _87
REMARK   33  A    between atoms: _89  and  _91
REMARK   34  A    between atoms: _91  and  _92
REMARK   35  A    between atoms: _91  and  _94
REMARK   36  A    between atoms: _94  and  _95
REMARK   37  A    between atoms: _100  and  _102
REMARK   38  A    between atoms: _102  and  _103
REMARK   39  A    between atoms: _102  and  _105
REMARK   40  A    between atoms: _105  and  _106
REMARK   41  A    between atoms: _109  and  _111
REMARK   42  A    between atoms: _111  and  _112
REMARK   43  A    between atoms: _115  and  _117
REMARK   44  A    between atoms: _117  and  _118
REMARK   45  A    between atoms: _117  and  _120
REMARK   46  A    between atoms: _120  and  _121
REMARK   47  A    between atoms: _127  and  _129
REMARK   48  A    between atoms: _129  and  _130
REMARK   49  A    between atoms: _129  and  _132
REMARK   50  A    between atoms: _132  and  _133
REMARK   51  A    between atoms: _133  and  _134
REMARK   52  A    between atoms: _134  and  _135
REMARK   53  A    between atoms: _144  and  _146
REMARK   54  A    between atoms: _146  and  _147
REMARK   55  A    between atoms: _146  and  _149
REMARK   56  A    between atoms: _149  and  _150
REMARK   57  A    between atoms: _150  and  _151
REMARK   58  A    between atoms: _156  and  _158
REMARK   59  A    between atoms: _158  and  _159
REMARK   60  A    between atoms: _158  and  _161
REMARK   61  A    between atoms: _161  and  _162
REMARK   62  A    between atoms: _162  and  _163
REMARK   63  A    between atoms: _166  and  _168
REMARK   64  A    between atoms: _168  and  _169
REMARK   65  A    between atoms: _168  and  _171
REMARK   66  A    between atoms: _174  and  _176
REMARK   67  A    between atoms: _176  and  _177
REMARK   68  A    between atoms: _176  and  _179
REMARK   69  A    between atoms: _179  and  _180
REMARK   70  A    between atoms: _183  and  _185
REMARK   71  A    between atoms: _185  and  _186
REMARK   72  A    between atoms: _185  and  _188
REMARK   73  A    between atoms: _188  and  _189
REMARK   74  A    between atoms: _195  and  _197
REMARK   75  A    between atoms: _197  and  _198
REMARK   76  A    between atoms: _197  and  _200
REMARK   77  A    between atoms: _200  and  _201
REMARK   78  A    between atoms: _206  and  _208
REMARK   79  A    between atoms: _208  and  _209
REMARK   80  A    between atoms: _208  and  _211
REMARK   81  A    between atoms: _211  and  _212
REMARK   82  A    between atoms: _214  and  _216
REMARK   83  A    between atoms: _216  and  _217
REMARK   84  A    between atoms: _216  and  _219
REMARK   85  A    between atoms: _219  and  _220
REMARK   86  A    between atoms: _220  and  _221
REMARK   87  A    between atoms: _221  and  _222
REMARK   88  A    between atoms: _232  and  _233
REMARK   89  A    between atoms: _238  and  _240
REMARK   90  A    between atoms: _240  and  _241
REMARK   91  A    between atoms: _240  and  _243
REMARK   92  A    between atoms: _243  and  _244
REMARK   93  A    between atoms: _254  and  _256
REMARK   94  A    between atoms: _256  and  _257
REMARK   95  A    between atoms: _256  and  _259
REMARK   96  A    between atoms: _259  and  _260
REMARK   97  A    between atoms: _263  and  _265
REMARK   98  A    between atoms: _265  and  _266
REMARK   99  A    between atoms: _265  and  _268
REMARK  100  A    between atoms: _271  and  _273
REMARK  101  A    between atoms: _273  and  _274
REMARK  102  A    between atoms: _273  and  _276
REMARK  103  A    between atoms: _276  and  _277
REMARK  104  A    between atoms: _277  and  _278
REMARK  105  A    between atoms: _281  and  _283
REMARK  106  A    between atoms: _283  and  _284
REMARK  107  A    between atoms: _283  and  _286
REMARK  108  A    between atoms: _286  and  _287
REMARK  109  A    between atoms: _287  and  _288
REMARK  110  A    between atoms: _293  and  _295
REMARK  111  A    between atoms: _295  and  _296
REMARK  112  A    between atoms: _295  and  _298
REMARK  113  A    between atoms: _298  and  _299
REMARK  114  A    between atoms: _299  and  _300
REMARK  115  A    between atoms: _300  and  _301
REMARK  116  A    between atoms: _310  and  _312
REMARK  117  A    between atoms: _312  and  _313
REMARK  118  A    between atoms: _312  and  _315
REMARK  119  A    between atoms: _315  and  _316
REMARK  120  A    between atoms: _316  and  _317
REMARK  121  A    between atoms: _322  and  _324
REMARK  122  A    between atoms: _324  and  _325
REMARK  123  A    between atoms: _324  and  _327
REMARK  124  A    between atoms: _327  and  _328
REMARK                            x       y       z     vdW  Elec       q    Type
REMARK                         _______ _______ _______ _____ _____    ______ ____
ROOT
ATOM      1  O   HOH     1     -15.767   3.896 -29.074  0.00  0.00    +0.000 OA
ENDROOT
TORSDOF 0
REMARK  Name = ../refined-set-2016/3m3c/3m3c_pocket.pdb
REMARK  124 active torsions:
REMARK  status: ('A' for Active; 'I' for Inactive)
REMARK    1  A    between atoms: _1  and  _3
REMARK    2  A    between atoms: _3  and  _4
REMARK    3  A    between atoms: _6  and  _8
REMARK    4  A    between atoms: _8  and  _9
REMARK    5  A    between atoms: _8  and  _11
REMARK    6  A    between atoms: _11  and  _12
REMARK    7  A    between atoms: _18  and  _19
REMARK    8  A    between atoms: _24  and  _26
REMARK    9  A    between atoms: _26  and  _27
REMARK   10  A    between atoms: _26  and  _29
REMARK   11  A    between atoms: _29  and  _30
REMARK   12  A    between atoms: _35  and  _37
REMARK   13  A    between atoms: _37  and  _38
REMARK   14  A    between atoms: _37  and  _40
REMARK   15  A    between atoms: _40  and  _41
REMARK   16  A    between atoms: _46  and  _48
REMARK   17  A    between atoms: _48  and  _49
REMARK   18  A    between atoms: _48  and  _51
REMARK   19  A    between atoms: _51  and  _52
REMARK   20  A    between atoms: _55  and  _57
REMARK   21  A    between atoms: _57  and  _58
REMARK   22  A    between atoms: _57  and  _60
REMARK   23  A    between atoms: _60  and  _61
REMARK   24  A    between atoms: _64  and  _66
REMARK   25  A    between atoms: _66  and  _67
REMARK   26  A    between atoms: _66  and  _69
REMARK   27  A    between atoms: _69  and  _70
REMARK   28  A    between atoms: _75  and  _77
REMARK   29  A    between atoms: _77  and  _78
REMARK   30  A    between atoms: _77  and  _80
REMARK   31  A    between atoms: _80  and  _81
REMARK   32  A    between atoms: _86  and  _87
REMARK   33  A    between atoms: _89  and  _91
REMARK   34  A    between atoms: _91  and  _92
REMARK   35  A    between atoms: _91  and  _94
REMARK   36  A    between atoms: _94  and  _95
REMARK   37  A    between atoms: _100  and  _102
REMARK   38  A    between atoms: _102  and  _103
REMARK   39  A    between atoms: _102  and  _105
REMARK   40  A    between atoms: _105  and  _106
REMARK   41  A    between atoms: _109  and  _111
REMARK   42  A    between atoms: _111  and  _112
REMARK   43  A    between atoms: _115  and  _117
REMARK   44  A    between atoms: _117  and  _118
REMARK   45  A    between atoms: _117  and  _120
REMARK   46  A    between atoms: _120  and  _121
REMARK   47  A    between atoms: _127  and  _129
REMARK   48  A    between atoms: _129  and  _130
REMARK   49  A    between atoms: _129  and  _132
REMARK   50  A    between atoms: _132  and  _133
REMARK   51  A    between atoms: _133  and  _134
REMARK   52  A    between atoms: _134  and  _135
REMARK   53  A    between atoms: _144  and  _146
REMARK   54  A    between atoms: _146  and  _147
REMARK   55  A    between atoms: _146  and  _149
REMARK   56  A    between atoms: _149  and  _150
REMARK   57  A    between atoms: _150  and  _151
REMARK   58  A    between atoms: _156  and  _158
REMARK   59  A    between atoms: _158  and  _159
REMARK   60  A    between atoms: _158  and  _161
REMARK   61  A    between atoms: _161  and  _162
REMARK   62  A    between atoms: _162  and  _163
REMARK   63  A    between atoms: _166  and  _168
REMARK   64  A    between atoms: _168  and  _169
REMARK   65  A    between atoms: _168  and  _171
REMARK   66  A    between atoms: _174  and  _176
REMARK   67  A    between atoms: _176  and  _177
REMARK   68  A    between atoms: _176  and  _179
REMARK   69  A    between atoms: _179  and  _180
REMARK   70  A    between atoms: _183  and  _185
REMARK   71  A    between atoms: _185  and  _186
REMARK   72  A    between atoms: _185  and  _188
REMARK   73  A    between atoms: _188  and  _189
REMARK   74  A    between atoms: _195  and  _197
REMARK   75  A    between atoms: _197  and  _198
REMARK   76  A    between atoms: _197  and  _200
REMARK   77  A    between atoms: _200  and  _201
REMARK   78  A    between atoms: _206  and  _208
REMARK   79  A    between atoms: _208  and  _209
REMARK   80  A    between atoms: _208  and  _211
REMARK   81  A    between atoms: _211  and  _212
REMARK   82  A    between atoms: _214  and  _216
REMARK   83  A    between atoms: _216  and  _217
REMARK   84  A    between atoms: _216  and  _219
REMARK   85  A    between atoms: _219  and  _220
REMARK   86  A    between atoms: _220  and  _221
REMARK   87  A    between atoms: _221  and  _222
REMARK   88  A    between atoms: _232  and  _233
REMARK   89  A    between atoms: _238  and  _240
REMARK   90  A    between atoms: _240  and  _241
REMARK   91  A    between atoms: _240  and  _243
REMARK   92  A    between atoms: _243  and  _244
REMARK   93  A    between atoms: _254  and  _256
REMARK   94  A    between atoms: _256  and  _257
REMARK   95  A    between atoms: _256  and  _259
REMARK   96  A    between atoms: _259  and  _260
REMARK   97  A    between atoms: _263  and  _265
REMARK   98  A    between atoms: _265  and  _266
REMARK   99  A    between atoms: _265  and  _268
REMARK  100  A    between atoms: _271  and  _273
REMARK  101  A    between atoms: _273  and  _274
REMARK  102  A    between atoms: _273  and  _276
REMARK  103  A    between atoms: _276  and  _277
REMARK  104  A    between atoms: _277  and  _278
REMARK  105  A    between atoms: _281  and  _283
REMARK  106  A    between atoms: _283  and  _284
REMARK  107  A    between atoms: _283  and  _286
REMARK  108  A    between atoms: _286  and  _287
REMARK  109  A    between atoms: _287  and  _288
REMARK  110  A    between atoms: _293  and  _295
REMARK  111  A    between atoms: _295  and  _296
REMARK  112  A    between atoms: _295  and  _298
REMARK  113  A    between atoms: _298  and  _299
REMARK  114  A    between atoms: _299  and  _300
REMARK  115  A    between atoms: _300  and  _301
REMARK  116  A    between atoms: _310  and  _312
REMARK  117  A    between atoms: _312  and  _313
REMARK  118  A    between atoms: _312  and  _315
REMARK  119  A    between atoms: _315  and  _316
REMARK  120  A    between atoms: _316  and  _317
REMARK  121  A    between atoms: _322  and  _324
REMARK  122  A    between atoms: _324  and  _325
REMARK  123  A    between atoms: _324  and  _327
REMARK  124  A    between atoms: _327  and  _328
REMARK                            x       y       z     vdW  Elec       q    Type
REMARK                         _______ _______ _______ _____ _____    ______ ____
ROOT
ATOM      1  O   HOH     1     -12.155  11.476 -34.854  0.00  0.00    +0.000 OA
ENDROOT
TORSDOF 0
REMARK  Name = ../refined-set-2016/3m3c/3m3c_pocket.pdb
REMARK  124 active torsions:
REMARK  status: ('A' for Active; 'I' for Inactive)
REMARK    1  A    between atoms: _1  and  _3
REMARK    2  A    between atoms: _3  and  _4
REMARK    3  A    between atoms: _6  and  _8
REMARK    4  A    between atoms: _8  and  _9
REMARK    5  A    between atoms: _8  and  _11
REMARK    6  A    between atoms: _11  and  _12
REMARK    7  A    between atoms: _18  and  _19
REMARK    8  A    between atoms: _24  and  _26
REMARK    9  A    between atoms: _26  and  _27
REMARK   10  A    between atoms: _26  and  _29
REMARK   11  A    between atoms: _29  and  _30
REMARK   12  A    between atoms: _35  and  _37
REMARK   13  A    between atoms: _37  and  _38
REMARK   14  A    between atoms: _37  and  _40
REMARK   15  A    between atoms: _40  and  _41
REMARK   16  A    between atoms: _46  and  _48
REMARK   17  A    between atoms: _48  and  _49
REMARK   18  A    between atoms: _48  and  _51
REMARK   19  A    between atoms: _51  and  _52
REMARK   20  A    between atoms: _55  and  _57
REMARK   21  A    between atoms: _57  and  _58
REMARK   22  A    between atoms: _57  and  _60
REMARK   23  A    between atoms: _60  and  _61
REMARK   24  A    between atoms: _64  and  _66
REMARK   25  A    between atoms: _66  and  _67
REMARK   26  A    between atoms: _66  and  _69
REMARK   27  A    between atoms: _69  and  _70
REMARK   28  A    between atoms: _75  and  _77
REMARK   29  A    between atoms: _77  and  _78
REMARK   30  A    between atoms: _77  and  _80
REMARK   31  A    between atoms: _80  and  _81
REMARK   32  A    between atoms: _86  and  _87
REMARK   33  A    between atoms: _89  and  _91
REMARK   34  A    between atoms: _91  and  _92
REMARK   35  A    between atoms: _91  and  _94
REMARK   36  A    between atoms: _94  and  _95
REMARK   37  A    between atoms: _100  and  _102
REMARK   38  A    between atoms: _102  and  _103
REMARK   39  A    between atoms: _102  and  _105
REMARK   40  A    between atoms: _105  and  _106
REMARK   41  A    between atoms: _109  and  _111
REMARK   42  A    between atoms: _111  and  _112
REMARK   43  A    between atoms: _115  and  _117
REMARK   44  A    between atoms: _117  and  _118
REMARK   45  A    between atoms: _117  and  _120
REMARK   46  A    between atoms: _120  and  _121
REMARK   47  A    between atoms: _127  and  _129
REMARK   48  A    between atoms: _129  and  _130
REMARK   49  A    between atoms: _129  and  _132
REMARK   50  A    between atoms: _132  and  _133
REMARK   51  A    between atoms: _133  and  _134
REMARK   52  A    between atoms: _134  and  _135
REMARK   53  A    between atoms: _144  and  _146
REMARK   54  A    between atoms: _146  and  _147
REMARK   55  A    between atoms: _146  and  _149
REMARK   56  A    between atoms: _149  and  _150
REMARK   57  A    between atoms: _150  and  _151
REMARK   58  A    between atoms: _156  and  _158
REMARK   59  A    between atoms: _158  and  _159
REMARK   60  A    between atoms: _158  and  _161
REMARK   61  A    between atoms: _161  and  _162
REMARK   62  A    between atoms: _162  and  _163
REMARK   63  A    between atoms: _166  and  _168
REMARK   64  A    between atoms: _168  and  _169
REMARK   65  A    between atoms: _168  and  _171
REMARK   66  A    between atoms: _174  and  _176
REMARK   67  A    between atoms: _176  and  _177
REMARK   68  A    between atoms: _176  and  _179
REMARK   69  A    between atoms: _179  and  _180
REMARK   70  A    between atoms: _183  and  _185
REMARK   71  A    between atoms: _185  and  _186
REMARK   72  A    between atoms: _185  and  _188
REMARK   73  A    between atoms: _188  and  _189
REMARK   74  A    between atoms: _195  and  _197
REMARK   75  A    between atoms: _197  and  _198
REMARK   76  A    between atoms: _197  and  _200
REMARK   77  A    between atoms: _200  and  _201
REMARK   78  A    between atoms: _206  and  _208
REMARK   79  A    between atoms: _208  and  _209
REMARK   80  A    between atoms: _208  and  _211
REMARK   81  A    between atoms: _211  and  _212
REMARK   82  A    between atoms: _214  and  _216
REMARK   83  A    between atoms: _216  and  _217
REMARK   84  A    between atoms: _216  and  _219
REMARK   85  A    between atoms: _219  and  _220
REMARK   86  A    between atoms: _220  and  _221
REMARK   87  A    between atoms: _221  and  _222
REMARK   88  A    between atoms: _232  and  _233
REMARK   89  A    between atoms: _238  and  _240
REMARK   90  A    between atoms: _240  and  _241
REMARK   91  A    between atoms: _240  and  _243
REMARK   92  A    between atoms: _243  and  _244
REMARK   93  A    between atoms: _254  and  _256
REMARK   94  A    between atoms: _256  and  _257
REMARK   95  A    between atoms: _256  and  _259
REMARK   96  A    between atoms: _259  and  _260
REMARK   97  A    between atoms: _263  and  _265
REMARK   98  A    between atoms: _265  and  _266
REMARK   99  A    between atoms: _265  and  _268
REMARK  100  A    between atoms: _271  and  _273
REMARK  101  A    between atoms: _273  and  _274
REMARK  102  A    between atoms: _273  and  _276
REMARK  103  A    between atoms: _276  and  _277
REMARK  104  A    between atoms: _277  and  _278
REMARK  105  A    between atoms: _281  and  _283
REMARK  106  A    between atoms: _283  and  _284
REMARK  107  A    between atoms: _283  and  _286
REMARK  108  A    between atoms: _286  and  _287
REMARK  109  A    between atoms: _287  and  _288
REMARK  110  A    between atoms: _293  and  _295
REMARK  111  A    between atoms: _295  and  _296
REMARK  112  A    between atoms: _295  and  _298
REMARK  113  A    between atoms: _298  and  _299
REMARK  114  A    between atoms: _299  and  _300
REMARK  115  A    between atoms: _300  and  _301
REMARK  116  A    between atoms: _310  and  _312
REMARK  117  A    between atoms: _312  and  _313
REMARK  118  A    between atoms: _312  and  _315
REMARK  119  A    between atoms: _315  and  _316
REMARK  120  A    between atoms: _316  and  _317
REMARK  121  A    between atoms: _322  and  _324
REMARK  122  A    between atoms: _324  and  _325
REMARK  123  A    between atoms: _324  and  _327
REMARK  124  A    between atoms: _327  and  _328
REMARK                            x       y       z     vdW  Elec       q    Type
REMARK                         _______ _______ _______ _____ _____    ______ ____
ROOT
ATOM      1  O   HOH     1     -13.789   3.043 -23.752  0.00  0.00    +0.000 OA
ENDROOT
TORSDOF 0
REMARK  Name = ../refined-set-2016/3m3c/3m3c_pocket.pdb
REMARK  124 active torsions:
REMARK  status: ('A' for Active; 'I' for Inactive)
REMARK    1  A    between atoms: _1  and  _3
REMARK    2  A    between atoms: _3  and  _4
REMARK    3  A    between atoms: _6  and  _8
REMARK    4  A    between atoms: _8  and  _9
REMARK    5  A    between atoms: _8  and  _11
REMARK    6  A    between atoms: _11  and  _12
REMARK    7  A    between atoms: _18  and  _19
REMARK    8  A    between atoms: _24  and  _26
REMARK    9  A    between atoms: _26  and  _27
REMARK   10  A    between atoms: _26  and  _29
REMARK   11  A    between atoms: _29  and  _30
REMARK   12  A    between atoms: _35  and  _37
REMARK   13  A    between atoms: _37  and  _38
REMARK   14  A    between atoms: _37  and  _40
REMARK   15  A    between atoms: _40  and  _41
REMARK   16  A    between atoms: _46  and  _48
REMARK   17  A    between atoms: _48  and  _49
REMARK   18  A    between atoms: _48  and  _51
REMARK   19  A    between atoms: _51  and  _52
REMARK   20  A    between atoms: _55  and  _57
REMARK   21  A    between atoms: _57  and  _58
REMARK   22  A    between atoms: _57  and  _60
REMARK   23  A    between atoms: _60  and  _61
REMARK   24  A    between atoms: _64  and  _66
REMARK   25  A    between atoms: _66  and  _67
REMARK   26  A    between atoms: _66  and  _69
REMARK   27  A    between atoms: _69  and  _70
REMARK   28  A    between atoms: _75  and  _77
REMARK   29  A    between atoms: _77  and  _78
REMARK   30  A    between atoms: _77  and  _80
REMARK   31  A    between atoms: _80  and  _81
REMARK   32  A    between atoms: _86  and  _87
REMARK   33  A    between atoms: _89  and  _91
REMARK   34  A    between atoms: _91  and  _92
REMARK   35  A    between atoms: _91  and  _94
REMARK   36  A    between atoms: _94  and  _95
REMARK   37  A    between atoms: _100  and  _102
REMARK   38  A    between atoms: _102  and  _103
REMARK   39  A    between atoms: _102  and  _105
REMARK   40  A    between atoms: _105  and  _106
REMARK   41  A    between atoms: _109  and  _111
REMARK   42  A    between atoms: _111  and  _112
REMARK   43  A    between atoms: _115  and  _117
REMARK   44  A    between atoms: _117  and  _118
REMARK   45  A    between atoms: _117  and  _120
REMARK   46  A    between atoms: _120  and  _121
REMARK   47  A    between atoms: _127  and  _129
REMARK   48  A    between atoms: _129  and  _130
REMARK   49  A    between atoms: _129  and  _132
REMARK   50  A    between atoms: _132  and  _133
REMARK   51  A    between atoms: _133  and  _134
REMARK   52  A    between atoms: _134  and  _135
REMARK   53  A    between atoms: _144  and  _146
REMARK   54  A    between atoms: _146  and  _147
REMARK   55  A    between atoms: _146  and  _149
REMARK   56  A    between atoms: _149  and  _150
REMARK   57  A    between atoms: _150  and  _151
REMARK   58  A    between atoms: _156  and  _158
REMARK   59  A    between atoms: _158  and  _159
REMARK   60  A    between atoms: _158  and  _161
REMARK   61  A    between atoms: _161  and  _162
REMARK   62  A    between atoms: _162  and  _163
REMARK   63  A    between atoms: _166  and  _168
REMARK   64  A    between atoms: _168  and  _169
REMARK   65  A    between atoms: _168  and  _171
REMARK   66  A    between atoms: _174  and  _176
REMARK   67  A    between atoms: _176  and  _177
REMARK   68  A    between atoms: _176  and  _179
REMARK   69  A    between atoms: _179  and  _180
REMARK   70  A    between atoms: _183  and  _185
REMARK   71  A    between atoms: _185  and  _186
REMARK   72  A    between atoms: _185  and  _188
REMARK   73  A    between atoms: _188  and  _189
REMARK   74  A    between atoms: _195  and  _197
REMARK   75  A    between atoms: _197  and  _198
REMARK   76  A    between atoms: _197  and  _200
REMARK   77  A    between atoms: _200  and  _201
REMARK   78  A    between atoms: _206  and  _208
REMARK   79  A    between atoms: _208  and  _209
REMARK   80  A    between atoms: _208  and  _211
REMARK   81  A    between atoms: _211  and  _212
REMARK   82  A    between atoms: _214  and  _216
REMARK   83  A    between atoms: _216  and  _217
REMARK   84  A    between atoms: _216  and  _219
REMARK   85  A    between atoms: _219  and  _220
REMARK   86  A    between atoms: _220  and  _221
REMARK   87  A    between atoms: _221  and  _222
REMARK   88  A    between atoms: _232  and  _233
REMARK   89  A    between atoms: _238  and  _240
REMARK   90  A    between atoms: _240  and  _241
REMARK   91  A    between atoms: _240  and  _243
REMARK   92  A    between atoms: _243  and  _244
REMARK   93  A    between atoms: _254  and  _256
REMARK   94  A    between atoms: _256  and  _257
REMARK   95  A    between atoms: _256  and  _259
REMARK   96  A    between atoms: _259  and  _260
REMARK   97  A    between atoms: _263  and  _265
REMARK   98  A    between atoms: _265  and  _266
REMARK   99  A    between atoms: _265  and  _268
REMARK  100  A    between atoms: _271  and  _273
REMARK  101  A    between atoms: _273  and  _274
REMARK  102  A    between atoms: _273  and  _276
REMARK  103  A    between atoms: _276  and  _277
REMARK  104  A    between atoms: _277  and  _278
REMARK  105  A    between atoms: _281  and  _283
REMARK  106  A    between atoms: _283  and  _284
REMARK  107  A    between atoms: _283  and  _286
REMARK  108  A    between atoms: _286  and  _287
REMARK  109  A    between atoms: _287  and  _288
REMARK  110  A    between atoms: _293  and  _295
REMARK  111  A    between atoms: _295  and  _296
REMARK  112  A    between atoms: _295  and  _298
REMARK  113  A    between atoms: _298  and  _299
REMARK  114  A    between atoms: _299  and  _300
REMARK  115  A    between atoms: _300  and  _301
REMARK  116  A    between atoms: _310  and  _312
REMARK  117  A    between atoms: _312  and  _313
REMARK  118  A    between atoms: _312  and  _315
REMARK  119  A    between atoms: _315  and  _316
REMARK  120  A    between atoms: _316  and  _317
REMARK  121  A    between atoms: _322  and  _324
REMARK  122  A    between atoms: _324  and  _325
REMARK  123  A    between atoms: _324  and  _327
REMARK  124  A    between atoms: _327  and  _328
REMARK                            x       y       z     vdW  Elec       q    Type
REMARK                         _______ _______ _______ _____ _____    ______ ____
ROOT
ATOM      1  O   HOH     1     -10.836   0.426 -27.456  0.00  0.00    +0.000 OA
ENDROOT
TORSDOF 0
REMARK  Name = ../refined-set-2016/3m3c/3m3c_pocket.pdb
REMARK  124 active torsions:
REMARK  status: ('A' for Active; 'I' for Inactive)
REMARK    1  A    between atoms: _1  and  _3
REMARK    2  A    between atoms: _3  and  _4
REMARK    3  A    between atoms: _6  and  _8
REMARK    4  A    between atoms: _8  and  _9
REMARK    5  A    between atoms: _8  and  _11
REMARK    6  A    between atoms: _11  and  _12
REMARK    7  A    between atoms: _18  and  _19
REMARK    8  A    between atoms: _24  and  _26
REMARK    9  A    between atoms: _26  and  _27
REMARK   10  A    between atoms: _26  and  _29
REMARK   11  A    between atoms: _29  and  _30
REMARK   12  A    between atoms: _35  and  _37
REMARK   13  A    between atoms: _37  and  _38
REMARK   14  A    between atoms: _37  and  _40
REMARK   15  A    between atoms: _40  and  _41
REMARK   16  A    between atoms: _46  and  _48
REMARK   17  A    between atoms: _48  and  _49
REMARK   18  A    between atoms: _48  and  _51
REMARK   19  A    between atoms: _51  and  _52
REMARK   20  A    between atoms: _55  and  _57
REMARK   21  A    between atoms: _57  and  _58
REMARK   22  A    between atoms: _57  and  _60
REMARK   23  A    between atoms: _60  and  _61
REMARK   24  A    between atoms: _64  and  _66
REMARK   25  A    between atoms: _66  and  _67
REMARK   26  A    between atoms: _66  and  _69
REMARK   27  A    between atoms: _69  and  _70
REMARK   28  A    between atoms: _75  and  _77
REMARK   29  A    between atoms: _77  and  _78
REMARK   30  A    between atoms: _77  and  _80
REMARK   31  A    between atoms: _80  and  _81
REMARK   32  A    between atoms: _86  and  _87
REMARK   33  A    between atoms: _89  and  _91
REMARK   34  A    between atoms: _91  and  _92
REMARK   35  A    between atoms: _91  and  _94
REMARK   36  A    between atoms: _94  and  _95
REMARK   37  A    between atoms: _100  and  _102
REMARK   38  A    between atoms: _102  and  _103
REMARK   39  A    between atoms: _102  and  _105
REMARK   40  A    between atoms: _105  and  _106
REMARK   41  A    between atoms: _109  and  _111
REMARK   42  A    between atoms: _111  and  _112
REMARK   43  A    between atoms: _115  and  _117
REMARK   44  A    between atoms: _117  and  _118
REMARK   45  A    between atoms: _117  and  _120
REMARK   46  A    between atoms: _120  and  _121
REMARK   47  A    between atoms: _127  and  _129
REMARK   48  A    between atoms: _129  and  _130
REMARK   49  A    between atoms: _129  and  _132
REMARK   50  A    between atoms: _132  and  _133
REMARK   51  A    between atoms: _133  and  _134
REMARK   52  A    between atoms: _134  and  _135
REMARK   53  A    between atoms: _144  and  _146
REMARK   54  A    between atoms: _146  and  _147
REMARK   55  A    between atoms: _146  and  _149
REMARK   56  A    between atoms: _149  and  _150
REMARK   57  A    between atoms: _150  and  _151
REMARK   58  A    between atoms: _156  and  _158
REMARK   59  A    between atoms: _158  and  _159
REMARK   60  A    between atoms: _158  and  _161
REMARK   61  A    between atoms: _161  and  _162
REMARK   62  A    between atoms: _162  and  _163
REMARK   63  A    between atoms: _166  and  _168
REMARK   64  A    between atoms: _168  and  _169
REMARK   65  A    between atoms: _168  and  _171
REMARK   66  A    between atoms: _174  and  _176
REMARK   67  A    between atoms: _176  and  _177
REMARK   68  A    between atoms: _176  and  _179
REMARK   69  A    between atoms: _179  and  _180
REMARK   70  A    between atoms: _183  and  _185
REMARK   71  A    between atoms: _185  and  _186
REMARK   72  A    between atoms: _185  and  _188
REMARK   73  A    between atoms: _188  and  _189
REMARK   74  A    between atoms: _195  and  _197
REMARK   75  A    between atoms: _197  and  _198
REMARK   76  A    between atoms: _197  and  _200
REMARK   77  A    between atoms: _200  and  _201
REMARK   78  A    between atoms: _206  and  _208
REMARK   79  A    between atoms: _208  and  _209
REMARK   80  A    between atoms: _208  and  _211
REMARK   81  A    between atoms: _211  and  _212
REMARK   82  A    between atoms: _214  and  _216
REMARK   83  A    between atoms: _216  and  _217
REMARK   84  A    between atoms: _216  and  _219
REMARK   85  A    between atoms: _219  and  _220
REMARK   86  A    between atoms: _220  and  _221
REMARK   87  A    between atoms: _221  and  _222
REMARK   88  A    between atoms: _232  and  _233
REMARK   89  A    between atoms: _238  and  _240
REMARK   90  A    between atoms: _240  and  _241
REMARK   91  A    between atoms: _240  and  _243
REMARK   92  A    between atoms: _243  and  _244
REMARK   93  A    between atoms: _254  and  _256
REMARK   94  A    between atoms: _256  and  _257
REMARK   95  A    between atoms: _256  and  _259
REMARK   96  A    between atoms: _259  and  _260
REMARK   97  A    between atoms: _263  and  _265
REMARK   98  A    between atoms: _265  and  _266
REMARK   99  A    between atoms: _265  and  _268
REMARK  100  A    between atoms: _271  and  _273
REMARK  101  A    between atoms: _273  and  _274
REMARK  102  A    between atoms: _273  and  _276
REMARK  103  A    between atoms: _276  and  _277
REMARK  104  A    between atoms: _277  and  _278
REMARK  105  A    between atoms: _281  and  _283
REMARK  106  A    between atoms: _283  and  _284
REMARK  107  A    between atoms: _283  and  _286
REMARK  108  A    between atoms: _286  and  _287
REMARK  109  A    between atoms: _287  and  _288
REMARK  110  A    between atoms: _293  and  _295
REMARK  111  A    between atoms: _295  and  _296
REMARK  112  A    between atoms: _295  and  _298
REMARK  113  A    between atoms: _298  and  _299
REMARK  114  A    between atoms: _299  and  _300
REMARK  115  A    between atoms: _300  and  _301
REMARK  116  A    between atoms: _310  and  _312
REMARK  117  A    between atoms: _312  and  _313
REMARK  118  A    between atoms: _312  and  _315
REMARK  119  A    between atoms: _315  and  _316
REMARK  120  A    between atoms: _316  and  _317
REMARK  121  A    between atoms: _322  and  _324
REMARK  122  A    between atoms: _324  and  _325
REMARK  123  A    between atoms: _324  and  _327
REMARK  124  A    between atoms: _327  and  _328
REMARK                            x       y       z     vdW  Elec       q    Type
REMARK                         _______ _______ _______ _____ _____    ______ ____
ROOT
ATOM      1  O   HOH     1     -15.526  12.992 -27.929  0.00  0.00    +0.000 OA
ENDROOT
TORSDOF 0
REMARK  Name = ../refined-set-2016/3m3c/3m3c_pocket.pdb
REMARK  124 active torsions:
REMARK  status: ('A' for Active; 'I' for Inactive)
REMARK    1  A    between atoms: _1  and  _3
REMARK    2  A    between atoms: _3  and  _4
REMARK    3  A    between atoms: _6  and  _8
REMARK    4  A    between atoms: _8  and  _9
REMARK    5  A    between atoms: _8  and  _11
REMARK    6  A    between atoms: _11  and  _12
REMARK    7  A    between atoms: _18  and  _19
REMARK    8  A    between atoms: _24  and  _26
REMARK    9  A    between atoms: _26  and  _27
REMARK   10  A    between atoms: _26  and  _29
REMARK   11  A    between atoms: _29  and  _30
REMARK   12  A    between atoms: _35  and  _37
REMARK   13  A    between atoms: _37  and  _38
REMARK   14  A    between atoms: _37  and  _40
REMARK   15  A    between atoms: _40  and  _41
REMARK   16  A    between atoms: _46  and  _48
REMARK   17  A    between atoms: _48  and  _49
REMARK   18  A    between atoms: _48  and  _51
REMARK   19  A    between atoms: _51  and  _52
REMARK   20  A    between atoms: _55  and  _57
REMARK   21  A    between atoms: _57  and  _58
REMARK   22  A    between atoms: _57  and  _60
REMARK   23  A    between atoms: _60  and  _61
REMARK   24  A    between atoms: _64  and  _66
REMARK   25  A    between atoms: _66  and  _67
REMARK   26  A    between atoms: _66  and  _69
REMARK   27  A    between atoms: _69  and  _70
REMARK   28  A    between atoms: _75  and  _77
REMARK   29  A    between atoms: _77  and  _78
REMARK   30  A    between atoms: _77  and  _80
REMARK   31  A    between atoms: _80  and  _81
REMARK   32  A    between atoms: _86  and  _87
REMARK   33  A    between atoms: _89  and  _91
REMARK   34  A    between atoms: _91  and  _92
REMARK   35  A    between atoms: _91  and  _94
REMARK   36  A    between atoms: _94  and  _95
REMARK   37  A    between atoms: _100  and  _102
REMARK   38  A    between atoms: _102  and  _103
REMARK   39  A    between atoms: _102  and  _105
REMARK   40  A    between atoms: _105  and  _106
REMARK   41  A    between atoms: _109  and  _111
REMARK   42  A    between atoms: _111  and  _112
REMARK   43  A    between atoms: _115  and  _117
REMARK   44  A    between atoms: _117  and  _118
REMARK   45  A    between atoms: _117  and  _120
REMARK   46  A    between atoms: _120  and  _121
REMARK   47  A    between atoms: _127  and  _129
REMARK   48  A    between atoms: _129  and  _130
REMARK   49  A    between atoms: _129  and  _132
REMARK   50  A    between atoms: _132  and  _133
REMARK   51  A    between atoms: _133  and  _134
REMARK   52  A    between atoms: _134  and  _135
REMARK   53  A    between atoms: _144  and  _146
REMARK   54  A    between atoms: _146  and  _147
REMARK   55  A    between atoms: _146  and  _149
REMARK   56  A    between atoms: _149  and  _150
REMARK   57  A    between atoms: _150  and  _151
REMARK   58  A    between atoms: _156  and  _158
REMARK   59  A    between atoms: _158  and  _159
REMARK   60  A    between atoms: _158  and  _161
REMARK   61  A    between atoms: _161  and  _162
REMARK   62  A    between atoms: _162  and  _163
REMARK   63  A    between atoms: _166  and  _168
REMARK   64  A    between atoms: _168  and  _169
REMARK   65  A    between atoms: _168  and  _171
REMARK   66  A    between atoms: _174  and  _176
REMARK   67  A    between atoms: _176  and  _177
REMARK   68  A    between atoms: _176  and  _179
REMARK   69  A    between atoms: _179  and  _180
REMARK   70  A    between atoms: _183  and  _185
REMARK   71  A    between atoms: _185  and  _186
REMARK   72  A    between atoms: _185  and  _188
REMARK   73  A    between atoms: _188  and  _189
REMARK   74  A    between atoms: _195  and  _197
REMARK   75  A    between atoms: _197  and  _198
REMARK   76  A    between atoms: _197  and  _200
REMARK   77  A    between atoms: _200  and  _201
REMARK   78  A    between atoms: _206  and  _208
REMARK   79  A    between atoms: _208  and  _209
REMARK   80  A    between atoms: _208  and  _211
REMARK   81  A    between atoms: _211  and  _212
REMARK   82  A    between atoms: _214  and  _216
REMARK   83  A    between atoms: _216  and  _217
REMARK   84  A    between atoms: _216  and  _219
REMARK   85  A    between atoms: _219  and  _220
REMARK   86  A    between atoms: _220  and  _221
REMARK   87  A    between atoms: _221  and  _222
REMARK   88  A    between atoms: _232  and  _233
REMARK   89  A    between atoms: _238  and  _240
REMARK   90  A    between atoms: _240  and  _241
REMARK   91  A    between atoms: _240  and  _243
REMARK   92  A    between atoms: _243  and  _244
REMARK   93  A    between atoms: _254  and  _256
REMARK   94  A    between atoms: _256  and  _257
REMARK   95  A    between atoms: _256  and  _259
REMARK   96  A    between atoms: _259  and  _260
REMARK   97  A    between atoms: _263  and  _265
REMARK   98  A    between atoms: _265  and  _266
REMARK   99  A    between atoms: _265  and  _268
REMARK  100  A    between atoms: _271  and  _273
REMARK  101  A    between atoms: _273  and  _274
REMARK  102  A    between atoms: _273  and  _276
REMARK  103  A    between atoms: _276  and  _277
REMARK  104  A    between atoms: _277  and  _278
REMARK  105  A    between atoms: _281  and  _283
REMARK  106  A    between atoms: _283  and  _284
REMARK  107  A    between atoms: _283  and  _286
REMARK  108  A    between atoms: _286  and  _287
REMARK  109  A    between atoms: _287  and  _288
REMARK  110  A    between atoms: _293  and  _295
REMARK  111  A    between atoms: _295  and  _296
REMARK  112  A    between atoms: _295  and  _298
REMARK  113  A    between atoms: _298  and  _299
REMARK  114  A    between atoms: _299  and  _300
REMARK  115  A    between atoms: _300  and  _301
REMARK  116  A    between atoms: _310  and  _312
REMARK  117  A    between atoms: _312  and  _313
REMARK  118  A    between atoms: _312  and  _315
REMARK  119  A    between atoms: _315  and  _316
REMARK  120  A    between atoms: _316  and  _317
REMARK  121  A    between atoms: _322  and  _324
REMARK  122  A    between atoms: _324  and  _325
REMARK  123  A    between atoms: _324  and  _327
REMARK  124  A    between atoms: _327  and  _328
REMARK                            x       y       z     vdW  Elec       q    Type
REMARK                         _______ _______ _______ _____ _____    ______ ____
ROOT
ATOM      1  O   HOH     1     -11.198   8.252 -35.740  0.00  0.00    +0.000 OA
ENDROOT
TORSDOF 0
REMARK  Name = ../refined-set-2016/3m3c/3m3c_pocket.pdb
REMARK  124 active torsions:
REMARK  status: ('A' for Active; 'I' for Inactive)
REMARK    1  A    between atoms: _1  and  _3
REMARK    2  A    between atoms: _3  and  _4
REMARK    3  A    between atoms: _6  and  _8
REMARK    4  A    between atoms: _8  and  _9
REMARK    5  A    between atoms: _8  and  _11
REMARK    6  A    between atoms: _11  and  _12
REMARK    7  A    between atoms: _18  and  _19
REMARK    8  A    between atoms: _24  and  _26
REMARK    9  A    between atoms: _26  and  _27
REMARK   10  A    between atoms: _26  and  _29
REMARK   11  A    between atoms: _29  and  _30
REMARK   12  A    between atoms: _35  and  _37
REMARK   13  A    between atoms: _37  and  _38
REMARK   14  A    between atoms: _37  and  _40
REMARK   15  A    between atoms: _40  and  _41
REMARK   16  A    between atoms: _46  and  _48
REMARK   17  A    between atoms: _48  and  _49
REMARK   18  A    between atoms: _48  and  _51
REMARK   19  A    between atoms: _51  and  _52
REMARK   20  A    between atoms: _55  and  _57
REMARK   21  A    between atoms: _57  and  _58
REMARK   22  A    between atoms: _57  and  _60
REMARK   23  A    between atoms: _60  and  _61
REMARK   24  A    between atoms: _64  and  _66
REMARK   25  A    between atoms: _66  and  _67
REMARK   26  A    between atoms: _66  and  _69
REMARK   27  A    between atoms: _69  and  _70
REMARK   28  A    between atoms: _75  and  _77
REMARK   29  A    between atoms: _77  and  _78
REMARK   30  A    between atoms: _77  and  _80
REMARK   31  A    between atoms: _80  and  _81
REMARK   32  A    between atoms: _86  and  _87
REMARK   33  A    between atoms: _89  and  _91
REMARK   34  A    between atoms: _91  and  _92
REMARK   35  A    between atoms: _91  and  _94
REMARK   36  A    between atoms: _94  and  _95
REMARK   37  A    between atoms: _100  and  _102
REMARK   38  A    between atoms: _102  and  _103
REMARK   39  A    between atoms: _102  and  _105
REMARK   40  A    between atoms: _105  and  _106
REMARK   41  A    between atoms: _109  and  _111
REMARK   42  A    between atoms: _111  and  _112
REMARK   43  A    between atoms: _115  and  _117
REMARK   44  A    between atoms: _117  and  _118
REMARK   45  A    between atoms: _117  and  _120
REMARK   46  A    between atoms: _120  and  _121
REMARK   47  A    between atoms: _127  and  _129
REMARK   48  A    between atoms: _129  and  _130
REMARK   49  A    between atoms: _129  and  _132
REMARK   50  A    between atoms: _132  and  _133
REMARK   51  A    between atoms: _133  and  _134
REMARK   52  A    between atoms: _134  and  _135
REMARK   53  A    between atoms: _144  and  _146
REMARK   54  A    between atoms: _146  and  _147
REMARK   55  A    between atoms: _146  and  _149
REMARK   56  A    between atoms: _149  and  _150
REMARK   57  A    between atoms: _150  and  _151
REMARK   58  A    between atoms: _156  and  _158
REMARK   59  A    between atoms: _158  and  _159
REMARK   60  A    between atoms: _158  and  _161
REMARK   61  A    between atoms: _161  and  _162
REMARK   62  A    between atoms: _162  and  _163
REMARK   63  A    between atoms: _166  and  _168
REMARK   64  A    between atoms: _168  and  _169
REMARK   65  A    between atoms: _168  and  _171
REMARK   66  A    between atoms: _174  and  _176
REMARK   67  A    between atoms: _176  and  _177
REMARK   68  A    between atoms: _176  and  _179
REMARK   69  A    between atoms: _179  and  _180
REMARK   70  A    between atoms: _183  and  _185
REMARK   71  A    between atoms: _185  and  _186
REMARK   72  A    between atoms: _185  and  _188
REMARK   73  A    between atoms: _188  and  _189
REMARK   74  A    between atoms: _195  and  _197
REMARK   75  A    between atoms: _197  and  _198
REMARK   76  A    between atoms: _197  and  _200
REMARK   77  A    between atoms: _200  and  _201
REMARK   78  A    between atoms: _206  and  _208
REMARK   79  A    between atoms: _208  and  _209
REMARK   80  A    between atoms: _208  and  _211
REMARK   81  A    between atoms: _211  and  _212
REMARK   82  A    between atoms: _214  and  _216
REMARK   83  A    between atoms: _216  and  _217
REMARK   84  A    between atoms: _216  and  _219
REMARK   85  A    between atoms: _219  and  _220
REMARK   86  A    between atoms: _220  and  _221
REMARK   87  A    between atoms: _221  and  _222
REMARK   88  A    between atoms: _232  and  _233
REMARK   89  A    between atoms: _238  and  _240
REMARK   90  A    between atoms: _240  and  _241
REMARK   91  A    between atoms: _240  and  _243
REMARK   92  A    between atoms: _243  and  _244
REMARK   93  A    between atoms: _254  and  _256
REMARK   94  A    between atoms: _256  and  _257
REMARK   95  A    between atoms: _256  and  _259
REMARK   96  A    between atoms: _259  and  _260
REMARK   97  A    between atoms: _263  and  _265
REMARK   98  A    between atoms: _265  and  _266
REMARK   99  A    between atoms: _265  and  _268
REMARK  100  A    between atoms: _271  and  _273
REMARK  101  A    between atoms: _273  and  _274
REMARK  102  A    between atoms: _273  and  _276
REMARK  103  A    between atoms: _276  and  _277
REMARK  104  A    between atoms: _277  and  _278
REMARK  105  A    between atoms: _281  and  _283
REMARK  106  A    between atoms: _283  and  _284
REMARK  107  A    between atoms: _283  and  _286
REMARK  108  A    between atoms: _286  and  _287
REMARK  109  A    between atoms: _287  and  _288
REMARK  110  A    between atoms: _293  and  _295
REMARK  111  A    between atoms: _295  and  _296
REMARK  112  A    between atoms: _295  and  _298
REMARK  113  A    between atoms: _298  and  _299
REMARK  114  A    between atoms: _299  and  _300
REMARK  115  A    between atoms: _300  and  _301
REMARK  116  A    between atoms: _310  and  _312
REMARK  117  A    between atoms: _312  and  _313
REMARK  118  A    between atoms: _312  and  _315
REMARK  119  A    between atoms: _315  and  _316
REMARK  120  A    between atoms: _316  and  _317
REMARK  121  A    between atoms: _322  and  _324
REMARK  122  A    between atoms: _324  and  _325
REMARK  123  A    between atoms: _324  and  _327
REMARK  124  A    between atoms: _327  and  _328
REMARK                            x       y       z     vdW  Elec       q    Type
REMARK                         _______ _______ _______ _____ _____    ______ ____
ROOT
ATOM      1  O   HOH     1     -11.750   2.684 -38.260  0.00  0.00    +0.000 OA
ENDROOT
TORSDOF 0
REMARK  Name = ../refined-set-2016/3m3c/3m3c_pocket.pdb
REMARK  124 active torsions:
REMARK  status: ('A' for Active; 'I' for Inactive)
REMARK    1  A    between atoms: _1  and  _3
REMARK    2  A    between atoms: _3  and  _4
REMARK    3  A    between atoms: _6  and  _8
REMARK    4  A    between atoms: _8  and  _9
REMARK    5  A    between atoms: _8  and  _11
REMARK    6  A    between atoms: _11  and  _12
REMARK    7  A    between atoms: _18  and  _19
REMARK    8  A    between atoms: _24  and  _26
REMARK    9  A    between atoms: _26  and  _27
REMARK   10  A    between atoms: _26  and  _29
REMARK   11  A    between atoms: _29  and  _30
REMARK   12  A    between atoms: _35  and  _37
REMARK   13  A    between atoms: _37  and  _38
REMARK   14  A    between atoms: _37  and  _40
REMARK   15  A    between atoms: _40  and  _41
REMARK   16  A    between atoms: _46  and  _48
REMARK   17  A    between atoms: _48  and  _49
REMARK   18  A    between atoms: _48  and  _51
REMARK   19  A    between atoms: _51  and  _52
REMARK   20  A    between atoms: _55  and  _57
REMARK   21  A    between atoms: _57  and  _58
REMARK   22  A    between atoms: _57  and  _60
REMARK   23  A    between atoms: _60  and  _61
REMARK   24  A    between atoms: _64  and  _66
REMARK   25  A    between atoms: _66  and  _67
REMARK   26  A    between atoms: _66  and  _69
REMARK   27  A    between atoms: _69  and  _70
REMARK   28  A    between atoms: _75  and  _77
REMARK   29  A    between atoms: _77  and  _78
REMARK   30  A    between atoms: _77  and  _80
REMARK   31  A    between atoms: _80  and  _81
REMARK   32  A    between atoms: _86  and  _87
REMARK   33  A    between atoms: _89  and  _91
REMARK   34  A    between atoms: _91  and  _92
REMARK   35  A    between atoms: _91  and  _94
REMARK   36  A    between atoms: _94  and  _95
REMARK   37  A    between atoms: _100  and  _102
REMARK   38  A    between atoms: _102  and  _103
REMARK   39  A    between atoms: _102  and  _105
REMARK   40  A    between atoms: _105  and  _106
REMARK   41  A    between atoms: _109  and  _111
REMARK   42  A    between atoms: _111  and  _112
REMARK   43  A    between atoms: _115  and  _117
REMARK   44  A    between atoms: _117  and  _118
REMARK   45  A    between atoms: _117  and  _120
REMARK   46  A    between atoms: _120  and  _121
REMARK   47  A    between atoms: _127  and  _129
REMARK   48  A    between atoms: _129  and  _130
REMARK   49  A    between atoms: _129  and  _132
REMARK   50  A    between atoms: _132  and  _133
REMARK   51  A    between atoms: _133  and  _134
REMARK   52  A    between atoms: _134  and  _135
REMARK   53  A    between atoms: _144  and  _146
REMARK   54  A    between atoms: _146  and  _147
REMARK   55  A    between atoms: _146  and  _149
REMARK   56  A    between atoms: _149  and  _150
REMARK   57  A    between atoms: _150  and  _151
REMARK   58  A    between atoms: _156  and  _158
REMARK   59  A    between atoms: _158  and  _159
REMARK   60  A    between atoms: _158  and  _161
REMARK   61  A    between atoms: _161  and  _162
REMARK   62  A    between atoms: _162  and  _163
REMARK   63  A    between atoms: _166  and  _168
REMARK   64  A    between atoms: _168  and  _169
REMARK   65  A    between atoms: _168  and  _171
REMARK   66  A    between atoms: _174  and  _176
REMARK   67  A    between atoms: _176  and  _177
REMARK   68  A    between atoms: _176  and  _179
REMARK   69  A    between atoms: _179  and  _180
REMARK   70  A    between atoms: _183  and  _185
REMARK   71  A    between atoms: _185  and  _186
REMARK   72  A    between atoms: _185  and  _188
REMARK   73  A    between atoms: _188  and  _189
REMARK   74  A    between atoms: _195  and  _197
REMARK   75  A    between atoms: _197  and  _198
REMARK   76  A    between atoms: _197  and  _200
REMARK   77  A    between atoms: _200  and  _201
REMARK   78  A    between atoms: _206  and  _208
REMARK   79  A    between atoms: _208  and  _209
REMARK   80  A    between atoms: _208  and  _211
REMARK   81  A    between atoms: _211  and  _212
REMARK   82  A    between atoms: _214  and  _216
REMARK   83  A    between atoms: _216  and  _217
REMARK   84  A    between atoms: _216  and  _219
REMARK   85  A    between atoms: _219  and  _220
REMARK   86  A    between atoms: _220  and  _221
REMARK   87  A    between atoms: _221  and  _222
REMARK   88  A    between atoms: _232  and  _233
REMARK   89  A    between atoms: _238  and  _240
REMARK   90  A    between atoms: _240  and  _241
REMARK   91  A    between atoms: _240  and  _243
REMARK   92  A    between atoms: _243  and  _244
REMARK   93  A    between atoms: _254  and  _256
REMARK   94  A    between atoms: _256  and  _257
REMARK   95  A    between atoms: _256  and  _259
REMARK   96  A    between atoms: _259  and  _260
REMARK   97  A    between atoms: _263  and  _265
REMARK   98  A    between atoms: _265  and  _266
REMARK   99  A    between atoms: _265  and  _268
REMARK  100  A    between atoms: _271  and  _273
REMARK  101  A    between atoms: _273  and  _274
REMARK  102  A    between atoms: _273  and  _276
REMARK  103  A    between atoms: _276  and  _277
REMARK  104  A    between atoms: _277  and  _278
REMARK  105  A    between atoms: _281  and  _283
REMARK  106  A    between atoms: _283  and  _284
REMARK  107  A    between atoms: _283  and  _286
REMARK  108  A    between atoms: _286  and  _287
REMARK  109  A    between atoms: _287  and  _288
REMARK  110  A    between atoms: _293  and  _295
REMARK  111  A    between atoms: _295  and  _296
REMARK  112  A    between atoms: _295  and  _298
REMARK  113  A    between atoms: _298  and  _299
REMARK  114  A    between atoms: _299  and  _300
REMARK  115  A    between atoms: _300  and  _301
REMARK  116  A    between atoms: _310  and  _312
REMARK  117  A    between atoms: _312  and  _313
REMARK  118  A    between atoms: _312  and  _315
REMARK  119  A    between atoms: _315  and  _316
REMARK  120  A    between atoms: _316  and  _317
REMARK  121  A    between atoms: _322  and  _324
REMARK  122  A    between atoms: _324  and  _325
REMARK  123  A    between atoms: _324  and  _327
REMARK  124  A    between atoms: _327  and  _328
REMARK                            x       y       z     vdW  Elec       q    Type
REMARK                         _______ _______ _______ _____ _____    ______ ____
ROOT
ATOM      1  O   HOH     1     -15.353  15.784 -27.807  0.00  0.00    +0.000 OA
ENDROOT
TORSDOF 0
REMARK  Name = ../refined-set-2016/3m3c/3m3c_pocket.pdb
REMARK  124 active torsions:
REMARK  status: ('A' for Active; 'I' for Inactive)
REMARK    1  A    between atoms: _1  and  _3
REMARK    2  A    between atoms: _3  and  _4
REMARK    3  A    between atoms: _6  and  _8
REMARK    4  A    between atoms: _8  and  _9
REMARK    5  A    between atoms: _8  and  _11
REMARK    6  A    between atoms: _11  and  _12
REMARK    7  A    between atoms: _18  and  _19
REMARK    8  A    between atoms: _24  and  _26
REMARK    9  A    between atoms: _26  and  _27
REMARK   10  A    between atoms: _26  and  _29
REMARK   11  A    between atoms: _29  and  _30
REMARK   12  A    between atoms: _35  and  _37
REMARK   13  A    between atoms: _37  and  _38
REMARK   14  A    between atoms: _37  and  _40
REMARK   15  A    between atoms: _40  and  _41
REMARK   16  A    between atoms: _46  and  _48
REMARK   17  A    between atoms: _48  and  _49
REMARK   18  A    between atoms: _48  and  _51
REMARK   19  A    between atoms: _51  and  _52
REMARK   20  A    between atoms: _55  and  _57
REMARK   21  A    between atoms: _57  and  _58
REMARK   22  A    between atoms: _57  and  _60
REMARK   23  A    between atoms: _60  and  _61
REMARK   24  A    between atoms: _64  and  _66
REMARK   25  A    between atoms: _66  and  _67
REMARK   26  A    between atoms: _66  and  _69
REMARK   27  A    between atoms: _69  and  _70
REMARK   28  A    between atoms: _75  and  _77
REMARK   29  A    between atoms: _77  and  _78
REMARK   30  A    between atoms: _77  and  _80
REMARK   31  A    between atoms: _80  and  _81
REMARK   32  A    between atoms: _86  and  _87
REMARK   33  A    between atoms: _89  and  _91
REMARK   34  A    between atoms: _91  and  _92
REMARK   35  A    between atoms: _91  and  _94
REMARK   36  A    between atoms: _94  and  _95
REMARK   37  A    between atoms: _100  and  _102
REMARK   38  A    between atoms: _102  and  _103
REMARK   39  A    between atoms: _102  and  _105
REMARK   40  A    between atoms: _105  and  _106
REMARK   41  A    between atoms: _109  and  _111
REMARK   42  A    between atoms: _111  and  _112
REMARK   43  A    between atoms: _115  and  _117
REMARK   44  A    between atoms: _117  and  _118
REMARK   45  A    between atoms: _117  and  _120
REMARK   46  A    between atoms: _120  and  _121
REMARK   47  A    between atoms: _127  and  _129
REMARK   48  A    between atoms: _129  and  _130
REMARK   49  A    between atoms: _129  and  _132
REMARK   50  A    between atoms: _132  and  _133
REMARK   51  A    between atoms: _133  and  _134
REMARK   52  A    between atoms: _134  and  _135
REMARK   53  A    between atoms: _144  and  _146
REMARK   54  A    between atoms: _146  and  _147
REMARK   55  A    between atoms: _146  and  _149
REMARK   56  A    between atoms: _149  and  _150
REMARK   57  A    between atoms: _150  and  _151
REMARK   58  A    between atoms: _156  and  _158
REMARK   59  A    between atoms: _158  and  _159
REMARK   60  A    between atoms: _158  and  _161
REMARK   61  A    between atoms: _161  and  _162
REMARK   62  A    between atoms: _162  and  _163
REMARK   63  A    between atoms: _166  and  _168
REMARK   64  A    between atoms: _168  and  _169
REMARK   65  A    between atoms: _168  and  _171
REMARK   66  A    between atoms: _174  and  _176
REMARK   67  A    between atoms: _176  and  _177
REMARK   68  A    between atoms: _176  and  _179
REMARK   69  A    between atoms: _179  and  _180
REMARK   70  A    between atoms: _183  and  _185
REMARK   71  A    between atoms: _185  and  _186
REMARK   72  A    between atoms: _185  and  _188
REMARK   73  A    between atoms: _188  and  _189
REMARK   74  A    between atoms: _195  and  _197
REMARK   75  A    between atoms: _197  and  _198
REMARK   76  A    between atoms: _197  and  _200
REMARK   77  A    between atoms: _200  and  _201
REMARK   78  A    between atoms: _206  and  _208
REMARK   79  A    between atoms: _208  and  _209
REMARK   80  A    between atoms: _208  and  _211
REMARK   81  A    between atoms: _211  and  _212
REMARK   82  A    between atoms: _214  and  _216
REMARK   83  A    between atoms: _216  and  _217
REMARK   84  A    between atoms: _216  and  _219
REMARK   85  A    between atoms: _219  and  _220
REMARK   86  A    between atoms: _220  and  _221
REMARK   87  A    between atoms: _221  and  _222
REMARK   88  A    between atoms: _232  and  _233
REMARK   89  A    between atoms: _238  and  _240
REMARK   90  A    between atoms: _240  and  _241
REMARK   91  A    between atoms: _240  and  _243
REMARK   92  A    between atoms: _243  and  _244
REMARK   93  A    between atoms: _254  and  _256
REMARK   94  A    between atoms: _256  and  _257
REMARK   95  A    between atoms: _256  and  _259
REMARK   96  A    between atoms: _259  and  _260
REMARK   97  A    between atoms: _263  and  _265
REMARK   98  A    between atoms: _265  and  _266
REMARK   99  A    between atoms: _265  and  _268
REMARK  100  A    between atoms: _271  and  _273
REMARK  101  A    between atoms: _273  and  _274
REMARK  102  A    between atoms: _273  and  _276
REMARK  103  A    between atoms: _276  and  _277
REMARK  104  A    between atoms: _277  and  _278
REMARK  105  A    between atoms: _281  and  _283
REMARK  106  A    between atoms: _283  and  _284
REMARK  107  A    between atoms: _283  and  _286
REMARK  108  A    between atoms: _286  and  _287
REMARK  109  A    between atoms: _287  and  _288
REMARK  110  A    between atoms: _293  and  _295
REMARK  111  A    between atoms: _295  and  _296
REMARK  112  A    between atoms: _295  and  _298
REMARK  113  A    between atoms: _298  and  _299
REMARK  114  A    between atoms: _299  and  _300
REMARK  115  A    between atoms: _300  and  _301
REMARK  116  A    between atoms: _310  and  _312
REMARK  117  A    between atoms: _312  and  _313
REMARK  118  A    between atoms: _312  and  _315
REMARK  119  A    between atoms: _315  and  _316
REMARK  120  A    between atoms: _316  and  _317
REMARK  121  A    between atoms: _322  and  _324
REMARK  122  A    between atoms: _324  and  _325
REMARK  123  A    between atoms: _324  and  _327
REMARK  124  A    between atoms: _327  and  _328
REMARK                            x       y       z     vdW  Elec       q    Type
REMARK                         _______ _______ _______ _____ _____    ______ ____
ROOT
ATOM      1  O   HOH     1      -9.788  18.583 -28.616  0.00  0.00    +0.000 OA
ENDROOT
TORSDOF 0
REMARK  Name = ../refined-set-2016/3m3c/3m3c_pocket.pdb
REMARK  124 active torsions:
REMARK  status: ('A' for Active; 'I' for Inactive)
REMARK    1  A    between atoms: _1  and  _3
REMARK    2  A    between atoms: _3  and  _4
REMARK    3  A    between atoms: _6  and  _8
REMARK    4  A    between atoms: _8  and  _9
REMARK    5  A    between atoms: _8  and  _11
REMARK    6  A    between atoms: _11  and  _12
REMARK    7  A    between atoms: _18  and  _19
REMARK    8  A    between atoms: _24  and  _26
REMARK    9  A    between atoms: _26  and  _27
REMARK   10  A    between atoms: _26  and  _29
REMARK   11  A    between atoms: _29  and  _30
REMARK   12  A    between atoms: _35  and  _37
REMARK   13  A    between atoms: _37  and  _38
REMARK   14  A    between atoms: _37  and  _40
REMARK   15  A    between atoms: _40  and  _41
REMARK   16  A    between atoms: _46  and  _48
REMARK   17  A    between atoms: _48  and  _49
REMARK   18  A    between atoms: _48  and  _51
REMARK   19  A    between atoms: _51  and  _52
REMARK   20  A    between atoms: _55  and  _57
REMARK   21  A    between atoms: _57  and  _58
REMARK   22  A    between atoms: _57  and  _60
REMARK   23  A    between atoms: _60  and  _61
REMARK   24  A    between atoms: _64  and  _66
REMARK   25  A    between atoms: _66  and  _67
REMARK   26  A    between atoms: _66  and  _69
REMARK   27  A    between atoms: _69  and  _70
REMARK   28  A    between atoms: _75  and  _77
REMARK   29  A    between atoms: _77  and  _78
REMARK   30  A    between atoms: _77  and  _80
REMARK   31  A    between atoms: _80  and  _81
REMARK   32  A    between atoms: _86  and  _87
REMARK   33  A    between atoms: _89  and  _91
REMARK   34  A    between atoms: _91  and  _92
REMARK   35  A    between atoms: _91  and  _94
REMARK   36  A    between atoms: _94  and  _95
REMARK   37  A    between atoms: _100  and  _102
REMARK   38  A    between atoms: _102  and  _103
REMARK   39  A    between atoms: _102  and  _105
REMARK   40  A    between atoms: _105  and  _106
REMARK   41  A    between atoms: _109  and  _111
REMARK   42  A    between atoms: _111  and  _112
REMARK   43  A    between atoms: _115  and  _117
REMARK   44  A    between atoms: _117  and  _118
REMARK   45  A    between atoms: _117  and  _120
REMARK   46  A    between atoms: _120  and  _121
REMARK   47  A    between atoms: _127  and  _129
REMARK   48  A    between atoms: _129  and  _130
REMARK   49  A    between atoms: _129  and  _132
REMARK   50  A    between atoms: _132  and  _133
REMARK   51  A    between atoms: _133  and  _134
REMARK   52  A    between atoms: _134  and  _135
REMARK   53  A    between atoms: _144  and  _146
REMARK   54  A    between atoms: _146  and  _147
REMARK   55  A    between atoms: _146  and  _149
REMARK   56  A    between atoms: _149  and  _150
REMARK   57  A    between atoms: _150  and  _151
REMARK   58  A    between atoms: _156  and  _158
REMARK   59  A    between atoms: _158  and  _159
REMARK   60  A    between atoms: _158  and  _161
REMARK   61  A    between atoms: _161  and  _162
REMARK   62  A    between atoms: _162  and  _163
REMARK   63  A    between atoms: _166  and  _168
REMARK   64  A    between atoms: _168  and  _169
REMARK   65  A    between atoms: _168  and  _171
REMARK   66  A    between atoms: _174  and  _176
REMARK   67  A    between atoms: _176  and  _177
REMARK   68  A    between atoms: _176  and  _179
REMARK   69  A    between atoms: _179  and  _180
REMARK   70  A    between atoms: _183  and  _185
REMARK   71  A    between atoms: _185  and  _186
REMARK   72  A    between atoms: _185  and  _188
REMARK   73  A    between atoms: _188  and  _189
REMARK   74  A    between atoms: _195  and  _197
REMARK   75  A    between atoms: _197  and  _198
REMARK   76  A    between atoms: _197  and  _200
REMARK   77  A    between atoms: _200  and  _201
REMARK   78  A    between atoms: _206  and  _208
REMARK   79  A    between atoms: _208  and  _209
REMARK   80  A    between atoms: _208  and  _211
REMARK   81  A    between atoms: _211  and  _212
REMARK   82  A    between atoms: _214  and  _216
REMARK   83  A    between atoms: _216  and  _217
REMARK   84  A    between atoms: _216  and  _219
REMARK   85  A    between atoms: _219  and  _220
REMARK   86  A    between atoms: _220  and  _221
REMARK   87  A    between atoms: _221  and  _222
REMARK   88  A    between atoms: _232  and  _233
REMARK   89  A    between atoms: _238  and  _240
REMARK   90  A    between atoms: _240  and  _241
REMARK   91  A    between atoms: _240  and  _243
REMARK   92  A    between atoms: _243  and  _244
REMARK   93  A    between atoms: _254  and  _256
REMARK   94  A    between atoms: _256  and  _257
REMARK   95  A    between atoms: _256  and  _259
REMARK   96  A    between atoms: _259  and  _260
REMARK   97  A    between atoms: _263  and  _265
REMARK   98  A    between atoms: _265  and  _266
REMARK   99  A    between atoms: _265  and  _268
REMARK  100  A    between atoms: _271  and  _273
REMARK  101  A    between atoms: _273  and  _274
REMARK  102  A    between atoms: _273  and  _276
REMARK  103  A    between atoms: _276  and  _277
REMARK  104  A    between atoms: _277  and  _278
REMARK  105  A    between atoms: _281  and  _283
REMARK  106  A    between atoms: _283  and  _284
REMARK  107  A    between atoms: _283  and  _286
REMARK  108  A    between atoms: _286  and  _287
REMARK  109  A    between atoms: _287  and  _288
REMARK  110  A    between atoms: _293  and  _295
REMARK  111  A    between atoms: _295  and  _296
REMARK  112  A    between atoms: _295  and  _298
REMARK  113  A    between atoms: _298  and  _299
REMARK  114  A    between atoms: _299  and  _300
REMARK  115  A    between atoms: _300  and  _301
REMARK  116  A    between atoms: _310  and  _312
REMARK  117  A    between atoms: _312  and  _313
REMARK  118  A    between atoms: _312  and  _315
REMARK  119  A    between atoms: _315  and  _316
REMARK  120  A    between atoms: _316  and  _317
REMARK  121  A    between atoms: _322  and  _324
REMARK  122  A    between atoms: _324  and  _325
REMARK  123  A    between atoms: _324  and  _327
REMARK  124  A    between atoms: _327  and  _328
REMARK                            x       y       z     vdW  Elec       q    Type
REMARK                         _______ _______ _______ _____ _____    ______ ____
ROOT
ATOM      1  O   HOH     1     -18.806  15.761 -27.068  0.00  0.00    +0.000 OA
ENDROOT
TORSDOF 0
