REMARK  Name = ../refined-set-2016/4ymg/4ymg_pocket.pdb
REMARK  237 active torsions:
REMARK  status: ('A' for Active; 'I' for Inactive)
REMARK    1  A    between atoms: _1  and  _3
REMARK    2  A    between atoms: _3  and  _4
REMARK    3  A    between atoms: _3  and  _6
REMARK    4  A    between atoms: _6  and  _7
REMARK    5  A    between atoms: _12  and  _14
REMARK    6  A    between atoms: _14  and  _15
REMARK    7  A    between atoms: _14  and  _17
REMARK    8  A    between atoms: _17  and  _18
REMARK    9  A    between atoms: _28  and  _30
REMARK   10  A    between atoms: _30  and  _31
REMARK   11  A    between atoms: _30  and  _33
REMARK   12  A    between atoms: _33  and  _34
REMARK   13  A    between atoms: _37  and  _39
REMARK   14  A    between atoms: _39  and  _40
REMARK   15  A    between atoms: _39  and  _42
REMARK   16  A    between atoms: _42  and  _43
REMARK   17  A    between atoms: _46  and  _48
REMARK   18  A    between atoms: _48  and  _49
REMARK   19  A    between atoms: _52  and  _54
REMARK   20  A    between atoms: _54  and  _55
REMARK   21  A    between atoms: _54  and  _57
REMARK   22  A    between atoms: _57  and  _58
REMARK   23  A    between atoms: _61  and  _63
REMARK   24  A    between atoms: _63  and  _64
REMARK   25  A    between atoms: _63  and  _66
REMARK   26  A    between atoms: _66  and  _67
REMARK   27  A    between atoms: _67  and  _68
REMARK   28  A    between atoms: _68  and  _69
REMARK   29  A    between atoms: _69  and  _70
REMARK   30  A    between atoms: _74  and  _76
REMARK   31  A    between atoms: _76  and  _77
REMARK   32  A    between atoms: _76  and  _79
REMARK   33  A    between atoms: _79  and  _80
REMARK   34  A    between atoms: _80  and  _81
REMARK   35  A    between atoms: _83  and  _85
REMARK   36  A    between atoms: _85  and  _86
REMARK   37  A    between atoms: _85  and  _88
REMARK   38  A    between atoms: _88  and  _89
REMARK   39  A    between atoms: _91  and  _93
REMARK   40  A    between atoms: _93  and  _94
REMARK   41  A    between atoms: _93  and  _96
REMARK   42  A    between atoms: _96  and  _97
REMARK   43  A    between atoms: _99  and  _101
REMARK   44  A    between atoms: _101  and  _102
REMARK   45  A    between atoms: _101  and  _104
REMARK   46  A    between atoms: _104  and  _105
REMARK   47  A    between atoms: _105  and  _106
REMARK   48  A    between atoms: _111  and  _113
REMARK   49  A    between atoms: _113  and  _114
REMARK   50  A    between atoms: _116  and  _118
REMARK   51  A    between atoms: _118  and  _119
REMARK   52  A    between atoms: _118  and  _121
REMARK   53  A    between atoms: _121  and  _122
REMARK   54  A    between atoms: _122  and  _123
REMARK   55  A    between atoms: _125  and  _127
REMARK   56  A    between atoms: _127  and  _128
REMARK   57  A    between atoms: _127  and  _130
REMARK   58  A    between atoms: _130  and  _131
REMARK   59  A    between atoms: _131  and  _132
REMARK   60  A    between atoms: _135  and  _137
REMARK   61  A    between atoms: _137  and  _138
REMARK   62  A    between atoms: _137  and  _140
REMARK   63  A    between atoms: _140  and  _141
REMARK   64  A    between atoms: _144  and  _146
REMARK   65  A    between atoms: _146  and  _147
REMARK   66  A    between atoms: _149  and  _151
REMARK   67  A    between atoms: _151  and  _152
REMARK   68  A    between atoms: _151  and  _154
REMARK   69  A    between atoms: _156  and  _158
REMARK   70  A    between atoms: _158  and  _159
REMARK   71  A    between atoms: _158  and  _161
REMARK   72  A    between atoms: _161  and  _162
REMARK   73  A    between atoms: _167  and  _168
REMARK   74  A    between atoms: _170  and  _172
REMARK   75  A    between atoms: _172  and  _173
REMARK   76  A    between atoms: _172  and  _175
REMARK   77  A    between atoms: _175  and  _176
REMARK   78  A    between atoms: _178  and  _180
REMARK   79  A    between atoms: _180  and  _181
REMARK   80  A    between atoms: _183  and  _185
REMARK   81  A    between atoms: _185  and  _186
REMARK   82  A    between atoms: _185  and  _188
REMARK   83  A    between atoms: _188  and  _189
REMARK   84  A    between atoms: _194  and  _195
REMARK   85  A    between atoms: _197  and  _199
REMARK   86  A    between atoms: _199  and  _200
REMARK   87  A    between atoms: _199  and  _202
REMARK   88  A    between atoms: _202  and  _203
REMARK   89  A    between atoms: _205  and  _207
REMARK   90  A    between atoms: _207  and  _208
REMARK   91  A    between atoms: _211  and  _213
REMARK   92  A    between atoms: _213  and  _214
REMARK   93  A    between atoms: _213  and  _216
REMARK   94  A    between atoms: _216  and  _217
REMARK   95  A    between atoms: _220  and  _222
REMARK   96  A    between atoms: _222  and  _223
REMARK   97  A    between atoms: _226  and  _228
REMARK   98  A    between atoms: _228  and  _229
REMARK   99  A    between atoms: _228  and  _231
REMARK  100  A    between atoms: _231  and  _232
REMARK  101  A    between atoms: _242  and  _244
REMARK  102  A    between atoms: _244  and  _245
REMARK  103  A    between atoms: _244  and  _247
REMARK  104  A    between atoms: _247  and  _248
REMARK  105  A    between atoms: _251  and  _253
REMARK  106  A    between atoms: _253  and  _254
REMARK  107  A    between atoms: _253  and  _256
REMARK  108  A    between atoms: _256  and  _257
REMARK  109  A    between atoms: _260  and  _262
REMARK  110  A    between atoms: _262  and  _263
REMARK  111  A    between atoms: _262  and  _265
REMARK  112  A    between atoms: _265  and  _266
REMARK  113  A    between atoms: _266  and  _267
REMARK  114  A    between atoms: _270  and  _272
REMARK  115  A    between atoms: _272  and  _273
REMARK  116  A    between atoms: _272  and  _275
REMARK  117  A    between atoms: _275  and  _276
REMARK  118  A    between atoms: _281  and  _282
REMARK  119  A    between atoms: _284  and  _286
REMARK  120  A    between atoms: _286  and  _287
REMARK  121  A    between atoms: _286  and  _289
REMARK  122  A    between atoms: _289  and  _290
REMARK  123  A    between atoms: _293  and  _294
REMARK  124  A    between atoms: _299  and  _301
REMARK  125  A    between atoms: _301  and  _302
REMARK  126  A    between atoms: _301  and  _304
REMARK  127  A    between atoms: _304  and  _305
REMARK  128  A    between atoms: _305  and  _306
REMARK  129  A    between atoms: _306  and  _307
REMARK  130  A    between atoms: _307  and  _308
REMARK  131  A    between atoms: _312  and  _314
REMARK  132  A    between atoms: _314  and  _315
REMARK  133  A    between atoms: _314  and  _317
REMARK  134  A    between atoms: _317  and  _318
REMARK  135  A    between atoms: _318  and  _319
REMARK  136  A    between atoms: _321  and  _323
REMARK  137  A    between atoms: _323  and  _324
REMARK  138  A    between atoms: _323  and  _326
REMARK  139  A    between atoms: _326  and  _327
REMARK  140  A    between atoms: _330  and  _332
REMARK  141  A    between atoms: _332  and  _333
REMARK  142  A    between atoms: _332  and  _335
REMARK  143  A    between atoms: _335  and  _336
REMARK  144  A    between atoms: _338  and  _340
REMARK  145  A    between atoms: _340  and  _341
REMARK  146  A    between atoms: _340  and  _343
REMARK  147  A    between atoms: _343  and  _344
REMARK  148  A    between atoms: _347  and  _349
REMARK  149  A    between atoms: _349  and  _350
REMARK  150  A    between atoms: _349  and  _352
REMARK  151  A    between atoms: _352  and  _353
REMARK  152  A    between atoms: _353  and  _354
REMARK  153  A    between atoms: _357  and  _359
REMARK  154  A    between atoms: _359  and  _360
REMARK  155  A    between atoms: _363  and  _364
REMARK  156  A    between atoms: _369  and  _371
REMARK  157  A    between atoms: _371  and  _372
REMARK  158  A    between atoms: _375  and  _377
REMARK  159  A    between atoms: _377  and  _378
REMARK  160  A    between atoms: _377  and  _380
REMARK  161  A    between atoms: _380  and  _381
REMARK  162  A    between atoms: _381  and  _382
REMARK  163  A    between atoms: _385  and  _387
REMARK  164  A    between atoms: _387  and  _388
REMARK  165  A    between atoms: _387  and  _390
REMARK  166  A    between atoms: _390  and  _391
REMARK  167  A    between atoms: _396  and  _398
REMARK  168  A    between atoms: _398  and  _399
REMARK  169  A    between atoms: _398  and  _401
REMARK  170  A    between atoms: _401  and  _402
REMARK  171  A    between atoms: _405  and  _407
REMARK  172  A    between atoms: _407  and  _408
REMARK  173  A    between atoms: _407  and  _410
REMARK  174  A    between atoms: _410  and  _411
REMARK  175  A    between atoms: _414  and  _416
REMARK  176  A    between atoms: _416  and  _417
REMARK  177  A    between atoms: _416  and  _419
REMARK  178  A    between atoms: _419  and  _420
REMARK  179  A    between atoms: _426  and  _428
REMARK  180  A    between atoms: _428  and  _429
REMARK  181  A    between atoms: _428  and  _431
REMARK  182  A    between atoms: _434  and  _436
REMARK  183  A    between atoms: _436  and  _437
REMARK  184  A    between atoms: _436  and  _439
REMARK  185  A    between atoms: _439  and  _440
REMARK  186  A    between atoms: _443  and  _445
REMARK  187  A    between atoms: _445  and  _446
REMARK  188  A    between atoms: _449  and  _451
REMARK  189  A    between atoms: _451  and  _452
REMARK  190  A    between atoms: _451  and  _454
REMARK  191  A    between atoms: _454  and  _455
REMARK  192  A    between atoms: _460  and  _462
REMARK  193  A    between atoms: _462  and  _463
REMARK  194  A    between atoms: _462  and  _465
REMARK  195  A    between atoms: _465  and  _466
REMARK  196  A    between atoms: _466  and  _467
REMARK  197  A    between atoms: _467  and  _468
REMARK  198  A    between atoms: _468  and  _469
REMARK  199  A    between atoms: _473  and  _475
REMARK  200  A    between atoms: _475  and  _476
REMARK  201  A    between atoms: _475  and  _478
REMARK  202  A    between atoms: _478  and  _479
REMARK  203  A    between atoms: _482  and  _484
REMARK  204  A    between atoms: _484  and  _485
REMARK  205  A    between atoms: _487  and  _489
REMARK  206  A    between atoms: _489  and  _490
REMARK  207  A    between atoms: _489  and  _492
REMARK  208  A    between atoms: _492  and  _493
REMARK  209  A    between atoms: _498  and  _499
REMARK  210  A    between atoms: _501  and  _503
REMARK  211  A    between atoms: _503  and  _504
REMARK  212  A    between atoms: _503  and  _506
REMARK  213  A    between atoms: _506  and  _507
REMARK  214  A    between atoms: _512  and  _513
REMARK  215  A    between atoms: _515  and  _517
REMARK  216  A    between atoms: _517  and  _518
REMARK  217  A    between atoms: _517  and  _520
REMARK  218  A    between atoms: _520  and  _521
REMARK  219  A    between atoms: _524  and  _526
REMARK  220  A    between atoms: _526  and  _527
REMARK  221  A    between atoms: _526  and  _529
REMARK  222  A    between atoms: _529  and  _530
REMARK  223  A    between atoms: _535  and  _537
REMARK  224  A    between atoms: _537  and  _538
REMARK  225  A    between atoms: _537  and  _540
REMARK  226  A    between atoms: _540  and  _541
REMARK  227  A    between atoms: _541  and  _542
REMARK  228  A    between atoms: _542  and  _543
REMARK  229  A    between atoms: _552  and  _554
REMARK  230  A    between atoms: _554  and  _555
REMARK  231  A    between atoms: _554  and  _557
REMARK  232  A    between atoms: _557  and  _558
REMARK  233  A    between atoms: _563  and  _564
REMARK  234  A    between atoms: _566  and  _568
REMARK  235  A    between atoms: _568  and  _569
REMARK  236  A    between atoms: _568  and  _571
REMARK  237  A    between atoms: _571  and  _572
REMARK                            x       y       z     vdW  Elec       q    Type
REMARK                         _______ _______ _______ _____ _____    ______ ____
ROOT
ATOM      1  CA  TRP A   2     -12.659  15.447 -19.230  0.00  0.00    +0.141 C 
ENDROOT
BRANCH   1   3
ATOM      2  C   HIS A   1     -11.795  16.666 -21.175  0.00  0.00    +0.239 C 
ATOM      3  N   TRP A   2     -12.006  16.589 -19.863  0.00  0.00    -0.298 N 
ATOM      4  H   TRP A   2     -11.692  17.377 -19.262  0.00  0.00    +0.150 HD
ATOM      5  O   HIS A   1     -12.085  15.761 -21.959  0.00  0.00    -0.274 OA
BRANCH   2   6
ATOM      6  CA  HIS A   1     -11.148  17.959 -21.676  0.00  0.00    +0.151 C 
BRANCH   6   7
ATOM      7  N   HIS A   1     -11.771  19.145 -21.107  0.00  0.00    -0.238 NA
ATOM      8  H   HIS A   1     -11.187  19.790 -20.537  0.00  0.00    +0.142 HD
ENDBRANCH   6   7
BRANCH   6   9
ATOM      9  CB  HIS A   1      -9.655  17.931 -21.358  0.00  0.00    +0.074 C 
BRANCH   9  10
ATOM     10  CG  HIS A   1      -8.983  16.687 -21.841  0.00  0.00    +0.082 A 
ATOM     11  CD2 HIS A   1      -8.689  15.527 -21.205  0.00  0.00    +0.115 A 
ATOM     12  NE2 HIS A   1      -8.103  14.697 -22.129  0.00  0.00    -0.221 NA
ATOM     13  CE1 HIS A   1      -8.056  15.317 -23.294  0.00  0.00    +0.199 A 
ATOM     14  ND1 HIS A   1      -8.590  16.516 -23.151  0.00  0.00    -0.227 NA
ENDBRANCH   9  10
ENDBRANCH   6   9
ENDBRANCH   2   6
ENDBRANCH   1   3
BRANCH   1  15
ATOM     15  C   TRP A   2     -14.053  15.210 -19.839  0.00  0.00    +0.227 C 
ATOM     16  O   TRP A   2     -14.397  14.084 -20.220  0.00  0.00    -0.286 OA
ENDBRANCH   1  15
BRANCH   1  17
ATOM     17  CB  TRP A   2     -12.748  15.674 -17.710  0.00  0.00    +0.056 C 
BRANCH  17  18
ATOM     18  CG  TRP A   2     -13.081  14.453 -16.885  0.00  0.00    -0.002 A 
ATOM     19  CD2 TRP A   2     -14.365  14.099 -16.357  0.00  0.00    +0.013 A 
ATOM     20  CE2 TRP A   2     -14.204  12.896 -15.634  0.00  0.00    +0.056 A 
ATOM     21  CZ2 TRP A   2     -15.267  12.262 -14.991  0.00  0.00    +0.017 A 
ATOM     22  CH2 TRP A   2     -16.502  12.847 -15.086  0.00  0.00    +0.001 A 
ATOM     23  CZ3 TRP A   2     -16.695  14.043 -15.795  0.00  0.00    +0.000 A 
ATOM     24  NE1 TRP A   2     -12.883  12.544 -15.708  0.00  0.00    -0.352 N 
ATOM     25  HE1 TRP A   2     -12.457  11.700 -15.275  0.00  0.00    +0.166 HD
ATOM     26  CE3 TRP A   2     -15.638  14.677 -16.433  0.00  0.00    +0.001 A 
ATOM     27  CD1 TRP A   2     -12.211  13.488 -16.448  0.00  0.00    +0.068 A 
ENDBRANCH  17  18
ENDBRANCH   1  17
TORSDOF 8
REMARK  Name = ../refined-set-2016/4ymg/4ymg_pocket.pdb
REMARK  237 active torsions:
REMARK  status: ('A' for Active; 'I' for Inactive)
REMARK    1  A    between atoms: _1  and  _3
REMARK    2  A    between atoms: _3  and  _4
REMARK    3  A    between atoms: _3  and  _6
REMARK    4  A    between atoms: _6  and  _7
REMARK    5  A    between atoms: _12  and  _14
REMARK    6  A    between atoms: _14  and  _15
REMARK    7  A    between atoms: _14  and  _17
REMARK    8  A    between atoms: _17  and  _18
REMARK    9  A    between atoms: _28  and  _30
REMARK   10  A    between atoms: _30  and  _31
REMARK   11  A    between atoms: _30  and  _33
REMARK   12  A    between atoms: _33  and  _34
REMARK   13  A    between atoms: _37  and  _39
REMARK   14  A    between atoms: _39  and  _40
REMARK   15  A    between atoms: _39  and  _42
REMARK   16  A    between atoms: _42  and  _43
REMARK   17  A    between atoms: _46  and  _48
REMARK   18  A    between atoms: _48  and  _49
REMARK   19  A    between atoms: _52  and  _54
REMARK   20  A    between atoms: _54  and  _55
REMARK   21  A    between atoms: _54  and  _57
REMARK   22  A    between atoms: _57  and  _58
REMARK   23  A    between atoms: _61  and  _63
REMARK   24  A    between atoms: _63  and  _64
REMARK   25  A    between atoms: _63  and  _66
REMARK   26  A    between atoms: _66  and  _67
REMARK   27  A    between atoms: _67  and  _68
REMARK   28  A    between atoms: _68  and  _69
REMARK   29  A    between atoms: _69  and  _70
REMARK   30  A    between atoms: _74  and  _76
REMARK   31  A    between atoms: _76  and  _77
REMARK   32  A    between atoms: _76  and  _79
REMARK   33  A    between atoms: _79  and  _80
REMARK   34  A    between atoms: _80  and  _81
REMARK   35  A    between atoms: _83  and  _85
REMARK   36  A    between atoms: _85  and  _86
REMARK   37  A    between atoms: _85  and  _88
REMARK   38  A    between atoms: _88  and  _89
REMARK   39  A    between atoms: _91  and  _93
REMARK   40  A    between atoms: _93  and  _94
REMARK   41  A    between atoms: _93  and  _96
REMARK   42  A    between atoms: _96  and  _97
REMARK   43  A    between atoms: _99  and  _101
REMARK   44  A    between atoms: _101  and  _102
REMARK   45  A    between atoms: _101  and  _104
REMARK   46  A    between atoms: _104  and  _105
REMARK   47  A    between atoms: _105  and  _106
REMARK   48  A    between atoms: _111  and  _113
REMARK   49  A    between atoms: _113  and  _114
REMARK   50  A    between atoms: _116  and  _118
REMARK   51  A    between atoms: _118  and  _119
REMARK   52  A    between atoms: _118  and  _121
REMARK   53  A    between atoms: _121  and  _122
REMARK   54  A    between atoms: _122  and  _123
REMARK   55  A    between atoms: _125  and  _127
REMARK   56  A    between atoms: _127  and  _128
REMARK   57  A    between atoms: _127  and  _130
REMARK   58  A    between atoms: _130  and  _131
REMARK   59  A    between atoms: _131  and  _132
REMARK   60  A    between atoms: _135  and  _137
REMARK   61  A    between atoms: _137  and  _138
REMARK   62  A    between atoms: _137  and  _140
REMARK   63  A    between atoms: _140  and  _141
REMARK   64  A    between atoms: _144  and  _146
REMARK   65  A    between atoms: _146  and  _147
REMARK   66  A    between atoms: _149  and  _151
REMARK   67  A    between atoms: _151  and  _152
REMARK   68  A    between atoms: _151  and  _154
REMARK   69  A    between atoms: _156  and  _158
REMARK   70  A    between atoms: _158  and  _159
REMARK   71  A    between atoms: _158  and  _161
REMARK   72  A    between atoms: _161  and  _162
REMARK   73  A    between atoms: _167  and  _168
REMARK   74  A    between atoms: _170  and  _172
REMARK   75  A    between atoms: _172  and  _173
REMARK   76  A    between atoms: _172  and  _175
REMARK   77  A    between atoms: _175  and  _176
REMARK   78  A    between atoms: _178  and  _180
REMARK   79  A    between atoms: _180  and  _181
REMARK   80  A    between atoms: _183  and  _185
REMARK   81  A    between atoms: _185  and  _186
REMARK   82  A    between atoms: _185  and  _188
REMARK   83  A    between atoms: _188  and  _189
REMARK   84  A    between atoms: _194  and  _195
REMARK   85  A    between atoms: _197  and  _199
REMARK   86  A    between atoms: _199  and  _200
REMARK   87  A    between atoms: _199  and  _202
REMARK   88  A    between atoms: _202  and  _203
REMARK   89  A    between atoms: _205  and  _207
REMARK   90  A    between atoms: _207  and  _208
REMARK   91  A    between atoms: _211  and  _213
REMARK   92  A    between atoms: _213  and  _214
REMARK   93  A    between atoms: _213  and  _216
REMARK   94  A    between atoms: _216  and  _217
REMARK   95  A    between atoms: _220  and  _222
REMARK   96  A    between atoms: _222  and  _223
REMARK   97  A    between atoms: _226  and  _228
REMARK   98  A    between atoms: _228  and  _229
REMARK   99  A    between atoms: _228  and  _231
REMARK  100  A    between atoms: _231  and  _232
REMARK  101  A    between atoms: _242  and  _244
REMARK  102  A    between atoms: _244  and  _245
REMARK  103  A    between atoms: _244  and  _247
REMARK  104  A    between atoms: _247  and  _248
REMARK  105  A    between atoms: _251  and  _253
REMARK  106  A    between atoms: _253  and  _254
REMARK  107  A    between atoms: _253  and  _256
REMARK  108  A    between atoms: _256  and  _257
REMARK  109  A    between atoms: _260  and  _262
REMARK  110  A    between atoms: _262  and  _263
REMARK  111  A    between atoms: _262  and  _265
REMARK  112  A    between atoms: _265  and  _266
REMARK  113  A    between atoms: _266  and  _267
REMARK  114  A    between atoms: _270  and  _272
REMARK  115  A    between atoms: _272  and  _273
REMARK  116  A    between atoms: _272  and  _275
REMARK  117  A    between atoms: _275  and  _276
REMARK  118  A    between atoms: _281  and  _282
REMARK  119  A    between atoms: _284  and  _286
REMARK  120  A    between atoms: _286  and  _287
REMARK  121  A    between atoms: _286  and  _289
REMARK  122  A    between atoms: _289  and  _290
REMARK  123  A    between atoms: _293  and  _294
REMARK  124  A    between atoms: _299  and  _301
REMARK  125  A    between atoms: _301  and  _302
REMARK  126  A    between atoms: _301  and  _304
REMARK  127  A    between atoms: _304  and  _305
REMARK  128  A    between atoms: _305  and  _306
REMARK  129  A    between atoms: _306  and  _307
REMARK  130  A    between atoms: _307  and  _308
REMARK  131  A    between atoms: _312  and  _314
REMARK  132  A    between atoms: _314  and  _315
REMARK  133  A    between atoms: _314  and  _317
REMARK  134  A    between atoms: _317  and  _318
REMARK  135  A    between atoms: _318  and  _319
REMARK  136  A    between atoms: _321  and  _323
REMARK  137  A    between atoms: _323  and  _324
REMARK  138  A    between atoms: _323  and  _326
REMARK  139  A    between atoms: _326  and  _327
REMARK  140  A    between atoms: _330  and  _332
REMARK  141  A    between atoms: _332  and  _333
REMARK  142  A    between atoms: _332  and  _335
REMARK  143  A    between atoms: _335  and  _336
REMARK  144  A    between atoms: _338  and  _340
REMARK  145  A    between atoms: _340  and  _341
REMARK  146  A    between atoms: _340  and  _343
REMARK  147  A    between atoms: _343  and  _344
REMARK  148  A    between atoms: _347  and  _349
REMARK  149  A    between atoms: _349  and  _350
REMARK  150  A    between atoms: _349  and  _352
REMARK  151  A    between atoms: _352  and  _353
REMARK  152  A    between atoms: _353  and  _354
REMARK  153  A    between atoms: _357  and  _359
REMARK  154  A    between atoms: _359  and  _360
REMARK  155  A    between atoms: _363  and  _364
REMARK  156  A    between atoms: _369  and  _371
REMARK  157  A    between atoms: _371  and  _372
REMARK  158  A    between atoms: _375  and  _377
REMARK  159  A    between atoms: _377  and  _378
REMARK  160  A    between atoms: _377  and  _380
REMARK  161  A    between atoms: _380  and  _381
REMARK  162  A    between atoms: _381  and  _382
REMARK  163  A    between atoms: _385  and  _387
REMARK  164  A    between atoms: _387  and  _388
REMARK  165  A    between atoms: _387  and  _390
REMARK  166  A    between atoms: _390  and  _391
REMARK  167  A    between atoms: _396  and  _398
REMARK  168  A    between atoms: _398  and  _399
REMARK  169  A    between atoms: _398  and  _401
REMARK  170  A    between atoms: _401  and  _402
REMARK  171  A    between atoms: _405  and  _407
REMARK  172  A    between atoms: _407  and  _408
REMARK  173  A    between atoms: _407  and  _410
REMARK  174  A    between atoms: _410  and  _411
REMARK  175  A    between atoms: _414  and  _416
REMARK  176  A    between atoms: _416  and  _417
REMARK  177  A    between atoms: _416  and  _419
REMARK  178  A    between atoms: _419  and  _420
REMARK  179  A    between atoms: _426  and  _428
REMARK  180  A    between atoms: _428  and  _429
REMARK  181  A    between atoms: _428  and  _431
REMARK  182  A    between atoms: _434  and  _436
REMARK  183  A    between atoms: _436  and  _437
REMARK  184  A    between atoms: _436  and  _439
REMARK  185  A    between atoms: _439  and  _440
REMARK  186  A    between atoms: _443  and  _445
REMARK  187  A    between atoms: _445  and  _446
REMARK  188  A    between atoms: _449  and  _451
REMARK  189  A    between atoms: _451  and  _452
REMARK  190  A    between atoms: _451  and  _454
REMARK  191  A    between atoms: _454  and  _455
REMARK  192  A    between atoms: _460  and  _462
REMARK  193  A    between atoms: _462  and  _463
REMARK  194  A    between atoms: _462  and  _465
REMARK  195  A    between atoms: _465  and  _466
REMARK  196  A    between atoms: _466  and  _467
REMARK  197  A    between atoms: _467  and  _468
REMARK  198  A    between atoms: _468  and  _469
REMARK  199  A    between atoms: _473  and  _475
REMARK  200  A    between atoms: _475  and  _476
REMARK  201  A    between atoms: _475  and  _478
REMARK  202  A    between atoms: _478  and  _479
REMARK  203  A    between atoms: _482  and  _484
REMARK  204  A    between atoms: _484  and  _485
REMARK  205  A    between atoms: _487  and  _489
REMARK  206  A    between atoms: _489  and  _490
REMARK  207  A    between atoms: _489  and  _492
REMARK  208  A    between atoms: _492  and  _493
REMARK  209  A    between atoms: _498  and  _499
REMARK  210  A    between atoms: _501  and  _503
REMARK  211  A    between atoms: _503  and  _504
REMARK  212  A    between atoms: _503  and  _506
REMARK  213  A    between atoms: _506  and  _507
REMARK  214  A    between atoms: _512  and  _513
REMARK  215  A    between atoms: _515  and  _517
REMARK  216  A    between atoms: _517  and  _518
REMARK  217  A    between atoms: _517  and  _520
REMARK  218  A    between atoms: _520  and  _521
REMARK  219  A    between atoms: _524  and  _526
REMARK  220  A    between atoms: _526  and  _527
REMARK  221  A    between atoms: _526  and  _529
REMARK  222  A    between atoms: _529  and  _530
REMARK  223  A    between atoms: _535  and  _537
REMARK  224  A    between atoms: _537  and  _538
REMARK  225  A    between atoms: _537  and  _540
REMARK  226  A    between atoms: _540  and  _541
REMARK  227  A    between atoms: _541  and  _542
REMARK  228  A    between atoms: _542  and  _543
REMARK  229  A    between atoms: _552  and  _554
REMARK  230  A    between atoms: _554  and  _555
REMARK  231  A    between atoms: _554  and  _557
REMARK  232  A    between atoms: _557  and  _558
REMARK  233  A    between atoms: _563  and  _564
REMARK  234  A    between atoms: _566  and  _568
REMARK  235  A    between atoms: _568  and  _569
REMARK  236  A    between atoms: _568  and  _571
REMARK  237  A    between atoms: _571  and  _572
REMARK                            x       y       z     vdW  Elec       q    Type
REMARK                         _______ _______ _______ _____ _____    ______ ____
ROOT
ATOM      1  CA  THR A   1     -13.542  12.554 -23.489  0.00  0.00    +0.160 C 
ENDROOT
BRANCH   1   2
ATOM      2  N   THR A   1     -13.860  13.977 -23.447  0.00  0.00    -0.237 NA
ATOM      3  H   THR A   1     -13.391  14.587 -22.748  0.00  0.00    +0.142 HD
ENDBRANCH   1   2
BRANCH   1   4
ATOM      4  CB  THR A   1     -12.423  12.202 -22.493  0.00  0.00    +0.134 C 
ATOM      5  CG2 THR A   1     -12.058  10.718 -22.594  0.00  0.00    +0.034 C 
BRANCH   4   6
ATOM      6  OG1 THR A   1     -11.267  12.999 -22.779  0.00  0.00    -0.383 OA
ATOM      7  HG1 THR A   1     -11.499  13.958 -22.693  0.00  0.00    +0.210 HD
ENDBRANCH   4   6
ENDBRANCH   1   4
BRANCH   1   8
ATOM      8  C   THR A   1     -14.777  11.689 -23.198  0.00  0.00    +0.227 C 
ATOM      9  O   THR A   1     -15.046  10.715 -23.906  0.00  0.00    -0.287 OA
ENDBRANCH   1   8
TORSDOF 4
REMARK  Name = ../refined-set-2016/4ymg/4ymg_pocket.pdb
REMARK  237 active torsions:
REMARK  status: ('A' for Active; 'I' for Inactive)
REMARK    1  A    between atoms: _1  and  _3
REMARK    2  A    between atoms: _3  and  _4
REMARK    3  A    between atoms: _3  and  _6
REMARK    4  A    between atoms: _6  and  _7
REMARK    5  A    between atoms: _12  and  _14
REMARK    6  A    between atoms: _14  and  _15
REMARK    7  A    between atoms: _14  and  _17
REMARK    8  A    between atoms: _17  and  _18
REMARK    9  A    between atoms: _28  and  _30
REMARK   10  A    between atoms: _30  and  _31
REMARK   11  A    between atoms: _30  and  _33
REMARK   12  A    between atoms: _33  and  _34
REMARK   13  A    between atoms: _37  and  _39
REMARK   14  A    between atoms: _39  and  _40
REMARK   15  A    between atoms: _39  and  _42
REMARK   16  A    between atoms: _42  and  _43
REMARK   17  A    between atoms: _46  and  _48
REMARK   18  A    between atoms: _48  and  _49
REMARK   19  A    between atoms: _52  and  _54
REMARK   20  A    between atoms: _54  and  _55
REMARK   21  A    between atoms: _54  and  _57
REMARK   22  A    between atoms: _57  and  _58
REMARK   23  A    between atoms: _61  and  _63
REMARK   24  A    between atoms: _63  and  _64
REMARK   25  A    between atoms: _63  and  _66
REMARK   26  A    between atoms: _66  and  _67
REMARK   27  A    between atoms: _67  and  _68
REMARK   28  A    between atoms: _68  and  _69
REMARK   29  A    between atoms: _69  and  _70
REMARK   30  A    between atoms: _74  and  _76
REMARK   31  A    between atoms: _76  and  _77
REMARK   32  A    between atoms: _76  and  _79
REMARK   33  A    between atoms: _79  and  _80
REMARK   34  A    between atoms: _80  and  _81
REMARK   35  A    between atoms: _83  and  _85
REMARK   36  A    between atoms: _85  and  _86
REMARK   37  A    between atoms: _85  and  _88
REMARK   38  A    between atoms: _88  and  _89
REMARK   39  A    between atoms: _91  and  _93
REMARK   40  A    between atoms: _93  and  _94
REMARK   41  A    between atoms: _93  and  _96
REMARK   42  A    between atoms: _96  and  _97
REMARK   43  A    between atoms: _99  and  _101
REMARK   44  A    between atoms: _101  and  _102
REMARK   45  A    between atoms: _101  and  _104
REMARK   46  A    between atoms: _104  and  _105
REMARK   47  A    between atoms: _105  and  _106
REMARK   48  A    between atoms: _111  and  _113
REMARK   49  A    between atoms: _113  and  _114
REMARK   50  A    between atoms: _116  and  _118
REMARK   51  A    between atoms: _118  and  _119
REMARK   52  A    between atoms: _118  and  _121
REMARK   53  A    between atoms: _121  and  _122
REMARK   54  A    between atoms: _122  and  _123
REMARK   55  A    between atoms: _125  and  _127
REMARK   56  A    between atoms: _127  and  _128
REMARK   57  A    between atoms: _127  and  _130
REMARK   58  A    between atoms: _130  and  _131
REMARK   59  A    between atoms: _131  and  _132
REMARK   60  A    between atoms: _135  and  _137
REMARK   61  A    between atoms: _137  and  _138
REMARK   62  A    between atoms: _137  and  _140
REMARK   63  A    between atoms: _140  and  _141
REMARK   64  A    between atoms: _144  and  _146
REMARK   65  A    between atoms: _146  and  _147
REMARK   66  A    between atoms: _149  and  _151
REMARK   67  A    between atoms: _151  and  _152
REMARK   68  A    between atoms: _151  and  _154
REMARK   69  A    between atoms: _156  and  _158
REMARK   70  A    between atoms: _158  and  _159
REMARK   71  A    between atoms: _158  and  _161
REMARK   72  A    between atoms: _161  and  _162
REMARK   73  A    between atoms: _167  and  _168
REMARK   74  A    between atoms: _170  and  _172
REMARK   75  A    between atoms: _172  and  _173
REMARK   76  A    between atoms: _172  and  _175
REMARK   77  A    between atoms: _175  and  _176
REMARK   78  A    between atoms: _178  and  _180
REMARK   79  A    between atoms: _180  and  _181
REMARK   80  A    between atoms: _183  and  _185
REMARK   81  A    between atoms: _185  and  _186
REMARK   82  A    between atoms: _185  and  _188
REMARK   83  A    between atoms: _188  and  _189
REMARK   84  A    between atoms: _194  and  _195
REMARK   85  A    between atoms: _197  and  _199
REMARK   86  A    between atoms: _199  and  _200
REMARK   87  A    between atoms: _199  and  _202
REMARK   88  A    between atoms: _202  and  _203
REMARK   89  A    between atoms: _205  and  _207
REMARK   90  A    between atoms: _207  and  _208
REMARK   91  A    between atoms: _211  and  _213
REMARK   92  A    between atoms: _213  and  _214
REMARK   93  A    between atoms: _213  and  _216
REMARK   94  A    between atoms: _216  and  _217
REMARK   95  A    between atoms: _220  and  _222
REMARK   96  A    between atoms: _222  and  _223
REMARK   97  A    between atoms: _226  and  _228
REMARK   98  A    between atoms: _228  and  _229
REMARK   99  A    between atoms: _228  and  _231
REMARK  100  A    between atoms: _231  and  _232
REMARK  101  A    between atoms: _242  and  _244
REMARK  102  A    between atoms: _244  and  _245
REMARK  103  A    between atoms: _244  and  _247
REMARK  104  A    between atoms: _247  and  _248
REMARK  105  A    between atoms: _251  and  _253
REMARK  106  A    between atoms: _253  and  _254
REMARK  107  A    between atoms: _253  and  _256
REMARK  108  A    between atoms: _256  and  _257
REMARK  109  A    between atoms: _260  and  _262
REMARK  110  A    between atoms: _262  and  _263
REMARK  111  A    between atoms: _262  and  _265
REMARK  112  A    between atoms: _265  and  _266
REMARK  113  A    between atoms: _266  and  _267
REMARK  114  A    between atoms: _270  and  _272
REMARK  115  A    between atoms: _272  and  _273
REMARK  116  A    between atoms: _272  and  _275
REMARK  117  A    between atoms: _275  and  _276
REMARK  118  A    between atoms: _281  and  _282
REMARK  119  A    between atoms: _284  and  _286
REMARK  120  A    between atoms: _286  and  _287
REMARK  121  A    between atoms: _286  and  _289
REMARK  122  A    between atoms: _289  and  _290
REMARK  123  A    between atoms: _293  and  _294
REMARK  124  A    between atoms: _299  and  _301
REMARK  125  A    between atoms: _301  and  _302
REMARK  126  A    between atoms: _301  and  _304
REMARK  127  A    between atoms: _304  and  _305
REMARK  128  A    between atoms: _305  and  _306
REMARK  129  A    between atoms: _306  and  _307
REMARK  130  A    between atoms: _307  and  _308
REMARK  131  A    between atoms: _312  and  _314
REMARK  132  A    between atoms: _314  and  _315
REMARK  133  A    between atoms: _314  and  _317
REMARK  134  A    between atoms: _317  and  _318
REMARK  135  A    between atoms: _318  and  _319
REMARK  136  A    between atoms: _321  and  _323
REMARK  137  A    between atoms: _323  and  _324
REMARK  138  A    between atoms: _323  and  _326
REMARK  139  A    between atoms: _326  and  _327
REMARK  140  A    between atoms: _330  and  _332
REMARK  141  A    between atoms: _332  and  _333
REMARK  142  A    between atoms: _332  and  _335
REMARK  143  A    between atoms: _335  and  _336
REMARK  144  A    between atoms: _338  and  _340
REMARK  145  A    between atoms: _340  and  _341
REMARK  146  A    between atoms: _340  and  _343
REMARK  147  A    between atoms: _343  and  _344
REMARK  148  A    between atoms: _347  and  _349
REMARK  149  A    between atoms: _349  and  _350
REMARK  150  A    between atoms: _349  and  _352
REMARK  151  A    between atoms: _352  and  _353
REMARK  152  A    between atoms: _353  and  _354
REMARK  153  A    between atoms: _357  and  _359
REMARK  154  A    between atoms: _359  and  _360
REMARK  155  A    between atoms: _363  and  _364
REMARK  156  A    between atoms: _369  and  _371
REMARK  157  A    between atoms: _371  and  _372
REMARK  158  A    between atoms: _375  and  _377
REMARK  159  A    between atoms: _377  and  _378
REMARK  160  A    between atoms: _377  and  _380
REMARK  161  A    between atoms: _380  and  _381
REMARK  162  A    between atoms: _381  and  _382
REMARK  163  A    between atoms: _385  and  _387
REMARK  164  A    between atoms: _387  and  _388
REMARK  165  A    between atoms: _387  and  _390
REMARK  166  A    between atoms: _390  and  _391
REMARK  167  A    between atoms: _396  and  _398
REMARK  168  A    between atoms: _398  and  _399
REMARK  169  A    between atoms: _398  and  _401
REMARK  170  A    between atoms: _401  and  _402
REMARK  171  A    between atoms: _405  and  _407
REMARK  172  A    between atoms: _407  and  _408
REMARK  173  A    between atoms: _407  and  _410
REMARK  174  A    between atoms: _410  and  _411
REMARK  175  A    between atoms: _414  and  _416
REMARK  176  A    between atoms: _416  and  _417
REMARK  177  A    between atoms: _416  and  _419
REMARK  178  A    between atoms: _419  and  _420
REMARK  179  A    between atoms: _426  and  _428
REMARK  180  A    between atoms: _428  and  _429
REMARK  181  A    between atoms: _428  and  _431
REMARK  182  A    between atoms: _434  and  _436
REMARK  183  A    between atoms: _436  and  _437
REMARK  184  A    between atoms: _436  and  _439
REMARK  185  A    between atoms: _439  and  _440
REMARK  186  A    between atoms: _443  and  _445
REMARK  187  A    between atoms: _445  and  _446
REMARK  188  A    between atoms: _449  and  _451
REMARK  189  A    between atoms: _451  and  _452
REMARK  190  A    between atoms: _451  and  _454
REMARK  191  A    between atoms: _454  and  _455
REMARK  192  A    between atoms: _460  and  _462
REMARK  193  A    between atoms: _462  and  _463
REMARK  194  A    between atoms: _462  and  _465
REMARK  195  A    between atoms: _465  and  _466
REMARK  196  A    between atoms: _466  and  _467
REMARK  197  A    between atoms: _467  and  _468
REMARK  198  A    between atoms: _468  and  _469
REMARK  199  A    between atoms: _473  and  _475
REMARK  200  A    between atoms: _475  and  _476
REMARK  201  A    between atoms: _475  and  _478
REMARK  202  A    between atoms: _478  and  _479
REMARK  203  A    between atoms: _482  and  _484
REMARK  204  A    between atoms: _484  and  _485
REMARK  205  A    between atoms: _487  and  _489
REMARK  206  A    between atoms: _489  and  _490
REMARK  207  A    between atoms: _489  and  _492
REMARK  208  A    between atoms: _492  and  _493
REMARK  209  A    between atoms: _498  and  _499
REMARK  210  A    between atoms: _501  and  _503
REMARK  211  A    between atoms: _503  and  _504
REMARK  212  A    between atoms: _503  and  _506
REMARK  213  A    between atoms: _506  and  _507
REMARK  214  A    between atoms: _512  and  _513
REMARK  215  A    between atoms: _515  and  _517
REMARK  216  A    between atoms: _517  and  _518
REMARK  217  A    between atoms: _517  and  _520
REMARK  218  A    between atoms: _520  and  _521
REMARK  219  A    between atoms: _524  and  _526
REMARK  220  A    between atoms: _526  and  _527
REMARK  221  A    between atoms: _526  and  _529
REMARK  222  A    between atoms: _529  and  _530
REMARK  223  A    between atoms: _535  and  _537
REMARK  224  A    between atoms: _537  and  _538
REMARK  225  A    between atoms: _537  and  _540
REMARK  226  A    between atoms: _540  and  _541
REMARK  227  A    between atoms: _541  and  _542
REMARK  228  A    between atoms: _542  and  _543
REMARK  229  A    between atoms: _552  and  _554
REMARK  230  A    between atoms: _554  and  _555
REMARK  231  A    between atoms: _554  and  _557
REMARK  232  A    between atoms: _557  and  _558
REMARK  233  A    between atoms: _563  and  _564
REMARK  234  A    between atoms: _566  and  _568
REMARK  235  A    between atoms: _568  and  _569
REMARK  236  A    between atoms: _568  and  _571
REMARK  237  A    between atoms: _571  and  _572
REMARK                            x       y       z     vdW  Elec       q    Type
REMARK                         _______ _______ _______ _____ _____    ______ ____
ROOT
ATOM      1  CA  LYS A   4     -10.885   4.165 -18.770  0.00  0.00    +0.149 C 
ENDROOT
BRANCH   1   4
ATOM      2  C   ASP A   3     -13.148   4.374 -17.922  0.00  0.00    +0.241 C 
ATOM      3  O   ASP A   3     -12.758   4.216 -16.766  0.00  0.00    -0.273 OA
ATOM      4  N   LYS A   4     -12.323   4.332 -18.962  0.00  0.00    -0.297 N 
ATOM      5  H   LYS A   4     -12.706   4.419 -19.925  0.00  0.00    +0.150 HD
BRANCH   2   6
ATOM      6  CA  ASP A   3     -14.622   4.639 -18.220  0.00  0.00    +0.160 C 
BRANCH   6   9
ATOM      7  C   ALA A   2     -14.270   6.288 -19.984  0.00  0.00    +0.241 C 
ATOM      8  O   ALA A   2     -13.685   7.039 -19.214  0.00  0.00    -0.273 OA
ATOM      9  N   ASP A   3     -14.814   5.137 -19.587  0.00  0.00    -0.297 N 
ATOM     10  H   ASP A   3     -15.384   4.583 -20.258  0.00  0.00    +0.150 HD
BRANCH   7  11
ATOM     11  CA  ALA A   2     -14.374   6.661 -21.468  0.00  0.00    +0.149 C 
ATOM     12  CB  ALA A   2     -15.215   7.915 -21.626  0.00  0.00    +0.031 C 
BRANCH  11  15
ATOM     13  C   ASP A   1     -14.226   4.448 -22.480  0.00  0.00    +0.239 C 
ATOM     14  O   ASP A   1     -13.204   4.187 -21.848  0.00  0.00    -0.274 OA
ATOM     15  N   ALA A   2     -14.894   5.589 -22.315  0.00  0.00    -0.297 N 
ATOM     16  H   ALA A   2     -15.805   5.720 -22.799  0.00  0.00    +0.150 HD
BRANCH  13  17
ATOM     17  CA  ASP A   1     -14.815   3.429 -23.475  0.00  0.00    +0.156 C 
BRANCH  17  18
ATOM     18  N   ASP A   1     -15.521   4.068 -24.586  0.00  0.00    -0.238 NA
ATOM     19  H   ASP A   1     -14.991   4.364 -25.430  0.00  0.00    +0.142 HD
ENDBRANCH  17  18
BRANCH  17  20
ATOM     20  CB  ASP A   1     -13.707   2.492 -24.004  0.00  0.00    +0.140 C 
BRANCH  20  21
ATOM     21  CG  ASP A   1     -12.641   3.223 -24.827  0.00  0.00    +0.367 C 
ATOM     22  OD2 ASP A   1     -11.583   2.609 -25.112  0.00  0.00    -0.246 OA
ATOM     23  OD1 ASP A   1     -12.857   4.402 -25.196  0.00  0.00    -0.246 OA
ENDBRANCH  20  21
ENDBRANCH  17  20
ENDBRANCH  13  17
ENDBRANCH  11  15
ENDBRANCH   7  11
ENDBRANCH   6   9
BRANCH   6  24
ATOM     24  CB  ASP A   3     -15.434   3.361 -17.965  0.00  0.00    +0.143 C 
BRANCH  24  25
ATOM     25  CG  ASP A   3     -16.929   3.630 -17.851  0.00  0.00    +0.367 C 
ATOM     26  OD2 ASP A   3     -17.318   4.817 -17.785  0.00  0.00    -0.246 OA
ATOM     27  OD1 ASP A   3     -17.716   2.658 -17.818  0.00  0.00    -0.246 OA
ENDBRANCH  24  25
ENDBRANCH   6  24
ENDBRANCH   2   6
ENDBRANCH   1   4
BRANCH   1  28
ATOM     28  C   LYS A   4     -10.247   5.392 -18.122  0.00  0.00    +0.241 C 
ATOM     29  O   LYS A   4      -9.205   5.295 -17.476  0.00  0.00    -0.273 OA
ATOM     30  N   MET A   5     -10.872   6.548 -18.301  0.00  0.00    -0.297 N 
ATOM     31  H   MET A   5     -11.786   6.560 -18.796  0.00  0.00    +0.150 HD
BRANCH  30  32
ATOM     32  CA  MET A   5     -10.302   7.810 -17.816  0.00  0.00    +0.149 C 
BRANCH  32  33
ATOM     33  C   MET A   5     -10.444   7.976 -16.300  0.00  0.00    +0.241 C 
ATOM     34  N   SER A   6      -9.418   8.529 -15.659  0.00  0.00    -0.295 N 
ATOM     35  H   SER A   6      -8.553   8.757 -16.190  0.00  0.00    +0.150 HD
ATOM     36  O   MET A   5     -11.464   7.607 -15.723  0.00  0.00    -0.273 OA
BRANCH  34  37
ATOM     37  CA  SER A   6      -9.473   8.825 -14.225  0.00  0.00    +0.178 C 
BRANCH  37  38
ATOM     38  C   SER A   6     -10.623   9.770 -13.911  0.00  0.00    +0.243 C 
ATOM     39  N   SER A   7     -11.037   9.800 -12.648  0.00  0.00    -0.296 N 
ATOM     40  H   SER A   7     -10.556   9.202 -11.946  0.00  0.00    +0.150 HD
ATOM     41  O   SER A   6     -11.121  10.466 -14.801  0.00  0.00    -0.273 OA
BRANCH  39  42
ATOM     42  CA  SER A   7     -12.149  10.648 -12.215  0.00  0.00    +0.166 C 
BRANCH  42  43
ATOM     43  CB  SER A   7     -11.718  12.098 -12.011  0.00  0.00    +0.229 C 
ATOM     44  OG  SER A   7     -10.528  12.410 -12.022  0.00  0.00    -0.286 OA
ENDBRANCH  42  43
BRANCH  42  45
ATOM     45  C   SER A   7     -12.739  10.118 -10.912  0.00  0.00    +0.165 C 
BRANCH  45  46
ATOM     46  O   SER A   7     -11.891  10.440  -9.820  0.00  0.00    -0.380 OA
ATOM     47  H   SER A   7     -12.286  10.090  -8.982  0.00  0.00    +0.211 HD
ENDBRANCH  45  46
ENDBRANCH  42  45
ENDBRANCH  39  42
ENDBRANCH  37  38
BRANCH  37  48
ATOM     48  CB  SER A   6      -8.144   9.435 -13.743  0.00  0.00    +0.166 C 
BRANCH  48  49
ATOM     49  OG  SER A   6      -7.078   8.520 -13.908  0.00  0.00    -0.380 OA
ATOM     50  H   SER A   6      -6.992   8.285 -14.866  0.00  0.00    +0.211 HD
ENDBRANCH  48  49
ENDBRANCH  37  48
ENDBRANCH  34  37
ENDBRANCH  32  33
BRANCH  32  51
ATOM     51  CB  MET A   5     -10.967   8.983 -18.530  0.00  0.00    +0.041 C 
BRANCH  51  52
ATOM     52  CG  MET A   5     -10.405  10.335 -18.141  0.00  0.00    +0.060 C 
BRANCH  52  53
ATOM     53  SD  MET A   5     -11.093  11.654 -19.172  0.00  0.00    -0.139 S 
ATOM     54  CE  MET A   5     -12.854  11.392 -18.916  0.00  0.00    +0.069 C 
ENDBRANCH  52  53
ENDBRANCH  51  52
ENDBRANCH  32  51
ENDBRANCH  30  32
ENDBRANCH   1  28
BRANCH   1  55
ATOM     55  CB  LYS A   4     -10.193   3.873 -20.103  0.00  0.00    +0.029 C 
BRANCH  55  56
ATOM     56  CG  LYS A   4     -10.592   2.549 -20.734  0.00  0.00    +0.000 C 
BRANCH  56  57
ATOM     57  CD  LYS A   4      -9.579   2.153 -21.815  0.00  0.00    -0.024 C 
BRANCH  57  58
ATOM     58  CE  LYS A   4      -9.879   0.766 -22.392  0.00  0.00    -0.086 C 
BRANCH  58  59
ATOM     59  NZ  LYS A   4      -8.743   0.230 -23.209  0.00  0.00    +0.380 N 
ATOM     60  HZ1 LYS A   4      -7.894   0.154 -22.613  0.00  0.00    -0.089 HD
ATOM     61  HZ2 LYS A   4      -8.995  -0.710 -23.577  0.00  0.00    -0.089 HD
ATOM     62  HZ3 LYS A   4      -8.554   0.875 -24.003  0.00  0.00    -0.089 HD
ENDBRANCH  58  59
ENDBRANCH  57  58
ENDBRANCH  56  57
ENDBRANCH  55  56
ENDBRANCH   1  55
TORSDOF 30
REMARK  Name = ../refined-set-2016/4ymg/4ymg_pocket.pdb
REMARK  237 active torsions:
REMARK  status: ('A' for Active; 'I' for Inactive)
REMARK    1  A    between atoms: _1  and  _3
REMARK    2  A    between atoms: _3  and  _4
REMARK    3  A    between atoms: _3  and  _6
REMARK    4  A    between atoms: _6  and  _7
REMARK    5  A    between atoms: _12  and  _14
REMARK    6  A    between atoms: _14  and  _15
REMARK    7  A    between atoms: _14  and  _17
REMARK    8  A    between atoms: _17  and  _18
REMARK    9  A    between atoms: _28  and  _30
REMARK   10  A    between atoms: _30  and  _31
REMARK   11  A    between atoms: _30  and  _33
REMARK   12  A    between atoms: _33  and  _34
REMARK   13  A    between atoms: _37  and  _39
REMARK   14  A    between atoms: _39  and  _40
REMARK   15  A    between atoms: _39  and  _42
REMARK   16  A    between atoms: _42  and  _43
REMARK   17  A    between atoms: _46  and  _48
REMARK   18  A    between atoms: _48  and  _49
REMARK   19  A    between atoms: _52  and  _54
REMARK   20  A    between atoms: _54  and  _55
REMARK   21  A    between atoms: _54  and  _57
REMARK   22  A    between atoms: _57  and  _58
REMARK   23  A    between atoms: _61  and  _63
REMARK   24  A    between atoms: _63  and  _64
REMARK   25  A    between atoms: _63  and  _66
REMARK   26  A    between atoms: _66  and  _67
REMARK   27  A    between atoms: _67  and  _68
REMARK   28  A    between atoms: _68  and  _69
REMARK   29  A    between atoms: _69  and  _70
REMARK   30  A    between atoms: _74  and  _76
REMARK   31  A    between atoms: _76  and  _77
REMARK   32  A    between atoms: _76  and  _79
REMARK   33  A    between atoms: _79  and  _80
REMARK   34  A    between atoms: _80  and  _81
REMARK   35  A    between atoms: _83  and  _85
REMARK   36  A    between atoms: _85  and  _86
REMARK   37  A    between atoms: _85  and  _88
REMARK   38  A    between atoms: _88  and  _89
REMARK   39  A    between atoms: _91  and  _93
REMARK   40  A    between atoms: _93  and  _94
REMARK   41  A    between atoms: _93  and  _96
REMARK   42  A    between atoms: _96  and  _97
REMARK   43  A    between atoms: _99  and  _101
REMARK   44  A    between atoms: _101  and  _102
REMARK   45  A    between atoms: _101  and  _104
REMARK   46  A    between atoms: _104  and  _105
REMARK   47  A    between atoms: _105  and  _106
REMARK   48  A    between atoms: _111  and  _113
REMARK   49  A    between atoms: _113  and  _114
REMARK   50  A    between atoms: _116  and  _118
REMARK   51  A    between atoms: _118  and  _119
REMARK   52  A    between atoms: _118  and  _121
REMARK   53  A    between atoms: _121  and  _122
REMARK   54  A    between atoms: _122  and  _123
REMARK   55  A    between atoms: _125  and  _127
REMARK   56  A    between atoms: _127  and  _128
REMARK   57  A    between atoms: _127  and  _130
REMARK   58  A    between atoms: _130  and  _131
REMARK   59  A    between atoms: _131  and  _132
REMARK   60  A    between atoms: _135  and  _137
REMARK   61  A    between atoms: _137  and  _138
REMARK   62  A    between atoms: _137  and  _140
REMARK   63  A    between atoms: _140  and  _141
REMARK   64  A    between atoms: _144  and  _146
REMARK   65  A    between atoms: _146  and  _147
REMARK   66  A    between atoms: _149  and  _151
REMARK   67  A    between atoms: _151  and  _152
REMARK   68  A    between atoms: _151  and  _154
REMARK   69  A    between atoms: _156  and  _158
REMARK   70  A    between atoms: _158  and  _159
REMARK   71  A    between atoms: _158  and  _161
REMARK   72  A    between atoms: _161  and  _162
REMARK   73  A    between atoms: _167  and  _168
REMARK   74  A    between atoms: _170  and  _172
REMARK   75  A    between atoms: _172  and  _173
REMARK   76  A    between atoms: _172  and  _175
REMARK   77  A    between atoms: _175  and  _176
REMARK   78  A    between atoms: _178  and  _180
REMARK   79  A    between atoms: _180  and  _181
REMARK   80  A    between atoms: _183  and  _185
REMARK   81  A    between atoms: _185  and  _186
REMARK   82  A    between atoms: _185  and  _188
REMARK   83  A    between atoms: _188  and  _189
REMARK   84  A    between atoms: _194  and  _195
REMARK   85  A    between atoms: _197  and  _199
REMARK   86  A    between atoms: _199  and  _200
REMARK   87  A    between atoms: _199  and  _202
REMARK   88  A    between atoms: _202  and  _203
REMARK   89  A    between atoms: _205  and  _207
REMARK   90  A    between atoms: _207  and  _208
REMARK   91  A    between atoms: _211  and  _213
REMARK   92  A    between atoms: _213  and  _214
REMARK   93  A    between atoms: _213  and  _216
REMARK   94  A    between atoms: _216  and  _217
REMARK   95  A    between atoms: _220  and  _222
REMARK   96  A    between atoms: _222  and  _223
REMARK   97  A    between atoms: _226  and  _228
REMARK   98  A    between atoms: _228  and  _229
REMARK   99  A    between atoms: _228  and  _231
REMARK  100  A    between atoms: _231  and  _232
REMARK  101  A    between atoms: _242  and  _244
REMARK  102  A    between atoms: _244  and  _245
REMARK  103  A    between atoms: _244  and  _247
REMARK  104  A    between atoms: _247  and  _248
REMARK  105  A    between atoms: _251  and  _253
REMARK  106  A    between atoms: _253  and  _254
REMARK  107  A    between atoms: _253  and  _256
REMARK  108  A    between atoms: _256  and  _257
REMARK  109  A    between atoms: _260  and  _262
REMARK  110  A    between atoms: _262  and  _263
REMARK  111  A    between atoms: _262  and  _265
REMARK  112  A    between atoms: _265  and  _266
REMARK  113  A    between atoms: _266  and  _267
REMARK  114  A    between atoms: _270  and  _272
REMARK  115  A    between atoms: _272  and  _273
REMARK  116  A    between atoms: _272  and  _275
REMARK  117  A    between atoms: _275  and  _276
REMARK  118  A    between atoms: _281  and  _282
REMARK  119  A    between atoms: _284  and  _286
REMARK  120  A    between atoms: _286  and  _287
REMARK  121  A    between atoms: _286  and  _289
REMARK  122  A    between atoms: _289  and  _290
REMARK  123  A    between atoms: _293  and  _294
REMARK  124  A    between atoms: _299  and  _301
REMARK  125  A    between atoms: _301  and  _302
REMARK  126  A    between atoms: _301  and  _304
REMARK  127  A    between atoms: _304  and  _305
REMARK  128  A    between atoms: _305  and  _306
REMARK  129  A    between atoms: _306  and  _307
REMARK  130  A    between atoms: _307  and  _308
REMARK  131  A    between atoms: _312  and  _314
REMARK  132  A    between atoms: _314  and  _315
REMARK  133  A    between atoms: _314  and  _317
REMARK  134  A    between atoms: _317  and  _318
REMARK  135  A    between atoms: _318  and  _319
REMARK  136  A    between atoms: _321  and  _323
REMARK  137  A    between atoms: _323  and  _324
REMARK  138  A    between atoms: _323  and  _326
REMARK  139  A    between atoms: _326  and  _327
REMARK  140  A    between atoms: _330  and  _332
REMARK  141  A    between atoms: _332  and  _333
REMARK  142  A    between atoms: _332  and  _335
REMARK  143  A    between atoms: _335  and  _336
REMARK  144  A    between atoms: _338  and  _340
REMARK  145  A    between atoms: _340  and  _341
REMARK  146  A    between atoms: _340  and  _343
REMARK  147  A    between atoms: _343  and  _344
REMARK  148  A    between atoms: _347  and  _349
REMARK  149  A    between atoms: _349  and  _350
REMARK  150  A    between atoms: _349  and  _352
REMARK  151  A    between atoms: _352  and  _353
REMARK  152  A    between atoms: _353  and  _354
REMARK  153  A    between atoms: _357  and  _359
REMARK  154  A    between atoms: _359  and  _360
REMARK  155  A    between atoms: _363  and  _364
REMARK  156  A    between atoms: _369  and  _371
REMARK  157  A    between atoms: _371  and  _372
REMARK  158  A    between atoms: _375  and  _377
REMARK  159  A    between atoms: _377  and  _378
REMARK  160  A    between atoms: _377  and  _380
REMARK  161  A    between atoms: _380  and  _381
REMARK  162  A    between atoms: _381  and  _382
REMARK  163  A    between atoms: _385  and  _387
REMARK  164  A    between atoms: _387  and  _388
REMARK  165  A    between atoms: _387  and  _390
REMARK  166  A    between atoms: _390  and  _391
REMARK  167  A    between atoms: _396  and  _398
REMARK  168  A    between atoms: _398  and  _399
REMARK  169  A    between atoms: _398  and  _401
REMARK  170  A    between atoms: _401  and  _402
REMARK  171  A    between atoms: _405  and  _407
REMARK  172  A    between atoms: _407  and  _408
REMARK  173  A    between atoms: _407  and  _410
REMARK  174  A    between atoms: _410  and  _411
REMARK  175  A    between atoms: _414  and  _416
REMARK  176  A    between atoms: _416  and  _417
REMARK  177  A    between atoms: _416  and  _419
REMARK  178  A    between atoms: _419  and  _420
REMARK  179  A    between atoms: _426  and  _428
REMARK  180  A    between atoms: _428  and  _429
REMARK  181  A    between atoms: _428  and  _431
REMARK  182  A    between atoms: _434  and  _436
REMARK  183  A    between atoms: _436  and  _437
REMARK  184  A    between atoms: _436  and  _439
REMARK  185  A    between atoms: _439  and  _440
REMARK  186  A    between atoms: _443  and  _445
REMARK  187  A    between atoms: _445  and  _446
REMARK  188  A    between atoms: _449  and  _451
REMARK  189  A    between atoms: _451  and  _452
REMARK  190  A    between atoms: _451  and  _454
REMARK  191  A    between atoms: _454  and  _455
REMARK  192  A    between atoms: _460  and  _462
REMARK  193  A    between atoms: _462  and  _463
REMARK  194  A    between atoms: _462  and  _465
REMARK  195  A    between atoms: _465  and  _466
REMARK  196  A    between atoms: _466  and  _467
REMARK  197  A    between atoms: _467  and  _468
REMARK  198  A    between atoms: _468  and  _469
REMARK  199  A    between atoms: _473  and  _475
REMARK  200  A    between atoms: _475  and  _476
REMARK  201  A    between atoms: _475  and  _478
REMARK  202  A    between atoms: _478  and  _479
REMARK  203  A    between atoms: _482  and  _484
REMARK  204  A    between atoms: _484  and  _485
REMARK  205  A    between atoms: _487  and  _489
REMARK  206  A    between atoms: _489  and  _490
REMARK  207  A    between atoms: _489  and  _492
REMARK  208  A    between atoms: _492  and  _493
REMARK  209  A    between atoms: _498  and  _499
REMARK  210  A    between atoms: _501  and  _503
REMARK  211  A    between atoms: _503  and  _504
REMARK  212  A    between atoms: _503  and  _506
REMARK  213  A    between atoms: _506  and  _507
REMARK  214  A    between atoms: _512  and  _513
REMARK  215  A    between atoms: _515  and  _517
REMARK  216  A    between atoms: _517  and  _518
REMARK  217  A    between atoms: _517  and  _520
REMARK  218  A    between atoms: _520  and  _521
REMARK  219  A    between atoms: _524  and  _526
REMARK  220  A    between atoms: _526  and  _527
REMARK  221  A    between atoms: _526  and  _529
REMARK  222  A    between atoms: _529  and  _530
REMARK  223  A    between atoms: _535  and  _537
REMARK  224  A    between atoms: _537  and  _538
REMARK  225  A    between atoms: _537  and  _540
REMARK  226  A    between atoms: _540  and  _541
REMARK  227  A    between atoms: _541  and  _542
REMARK  228  A    between atoms: _542  and  _543
REMARK  229  A    between atoms: _552  and  _554
REMARK  230  A    between atoms: _554  and  _555
REMARK  231  A    between atoms: _554  and  _557
REMARK  232  A    between atoms: _557  and  _558
REMARK  233  A    between atoms: _563  and  _564
REMARK  234  A    between atoms: _566  and  _568
REMARK  235  A    between atoms: _568  and  _569
REMARK  236  A    between atoms: _568  and  _571
REMARK  237  A    between atoms: _571  and  _572
REMARK                            x       y       z     vdW  Elec       q    Type
REMARK                         _______ _______ _______ _____ _____    ______ ____
ROOT
ATOM      1  CA  GLN A   1      -8.389  11.703  -9.092  0.00  0.00    +0.145 C 
ENDROOT
BRANCH   1   2
ATOM      2  C   GLN A   1      -7.532  12.773  -9.766  0.00  0.00    +0.238 C 
ATOM      3  O   GLN A   1      -6.337  12.865  -9.500  0.00  0.00    -0.274 OA
ATOM      4  N   GLY A   2      -8.162  13.581 -10.623  0.00  0.00    -0.297 N 
ATOM      5  H   GLY A   2      -9.147  13.367 -10.878  0.00  0.00    +0.150 HD
BRANCH   4   6
ATOM      6  CA  GLY A   2      -7.526  14.750 -11.216  0.00  0.00    +0.163 C 
BRANCH   6   7
ATOM      7  C   GLY A   2      -6.957  15.702 -10.174  0.00  0.00    +0.229 C 
ATOM      8  O   GLY A   2      -5.792  16.092 -10.245  0.00  0.00    -0.286 OA
ENDBRANCH   6   7
ENDBRANCH   4   6
ENDBRANCH   1   2
BRANCH   1   9
ATOM      9  N   GLN A   1      -9.723  12.218  -8.793  0.00  0.00    -0.238 NA
ATOM     10  H   GLN A   1     -10.558  11.734  -9.181  0.00  0.00    +0.142 HD
ENDBRANCH   1   9
BRANCH   1  11
ATOM     11  CB  GLN A   1      -8.473  10.470  -9.986  0.00  0.00    +0.036 C 
BRANCH  11  12
ATOM     12  CG  GLN A   1      -8.635   9.177  -9.229  0.00  0.00    +0.087 C 
BRANCH  12  13
ATOM     13  CD  GLN A   1      -8.598   7.977 -10.154  0.00  0.00    +0.219 C 
ATOM     14  NE2 GLN A   1      -7.573   7.148  -9.999  0.00  0.00    -0.329 N 
ATOM     15 HE21 GLN A   1      -6.865   7.329  -9.259  0.00  0.00    +0.145 HD
ATOM     16 HE22 GLN A   1      -7.478   6.318 -10.618  0.00  0.00    +0.145 HD
ATOM     17  OE1 GLN A   1      -9.466   7.812 -11.014  0.00  0.00    -0.275 OA
ENDBRANCH  12  13
ENDBRANCH  11  12
ENDBRANCH   1  11
TORSDOF 7
REMARK  Name = ../refined-set-2016/4ymg/4ymg_pocket.pdb
REMARK  237 active torsions:
REMARK  status: ('A' for Active; 'I' for Inactive)
REMARK    1  A    between atoms: _1  and  _3
REMARK    2  A    between atoms: _3  and  _4
REMARK    3  A    between atoms: _3  and  _6
REMARK    4  A    between atoms: _6  and  _7
REMARK    5  A    between atoms: _12  and  _14
REMARK    6  A    between atoms: _14  and  _15
REMARK    7  A    between atoms: _14  and  _17
REMARK    8  A    between atoms: _17  and  _18
REMARK    9  A    between atoms: _28  and  _30
REMARK   10  A    between atoms: _30  and  _31
REMARK   11  A    between atoms: _30  and  _33
REMARK   12  A    between atoms: _33  and  _34
REMARK   13  A    between atoms: _37  and  _39
REMARK   14  A    between atoms: _39  and  _40
REMARK   15  A    between atoms: _39  and  _42
REMARK   16  A    between atoms: _42  and  _43
REMARK   17  A    between atoms: _46  and  _48
REMARK   18  A    between atoms: _48  and  _49
REMARK   19  A    between atoms: _52  and  _54
REMARK   20  A    between atoms: _54  and  _55
REMARK   21  A    between atoms: _54  and  _57
REMARK   22  A    between atoms: _57  and  _58
REMARK   23  A    between atoms: _61  and  _63
REMARK   24  A    between atoms: _63  and  _64
REMARK   25  A    between atoms: _63  and  _66
REMARK   26  A    between atoms: _66  and  _67
REMARK   27  A    between atoms: _67  and  _68
REMARK   28  A    between atoms: _68  and  _69
REMARK   29  A    between atoms: _69  and  _70
REMARK   30  A    between atoms: _74  and  _76
REMARK   31  A    between atoms: _76  and  _77
REMARK   32  A    between atoms: _76  and  _79
REMARK   33  A    between atoms: _79  and  _80
REMARK   34  A    between atoms: _80  and  _81
REMARK   35  A    between atoms: _83  and  _85
REMARK   36  A    between atoms: _85  and  _86
REMARK   37  A    between atoms: _85  and  _88
REMARK   38  A    between atoms: _88  and  _89
REMARK   39  A    between atoms: _91  and  _93
REMARK   40  A    between atoms: _93  and  _94
REMARK   41  A    between atoms: _93  and  _96
REMARK   42  A    between atoms: _96  and  _97
REMARK   43  A    between atoms: _99  and  _101
REMARK   44  A    between atoms: _101  and  _102
REMARK   45  A    between atoms: _101  and  _104
REMARK   46  A    between atoms: _104  and  _105
REMARK   47  A    between atoms: _105  and  _106
REMARK   48  A    between atoms: _111  and  _113
REMARK   49  A    between atoms: _113  and  _114
REMARK   50  A    between atoms: _116  and  _118
REMARK   51  A    between atoms: _118  and  _119
REMARK   52  A    between atoms: _118  and  _121
REMARK   53  A    between atoms: _121  and  _122
REMARK   54  A    between atoms: _122  and  _123
REMARK   55  A    between atoms: _125  and  _127
REMARK   56  A    between atoms: _127  and  _128
REMARK   57  A    between atoms: _127  and  _130
REMARK   58  A    between atoms: _130  and  _131
REMARK   59  A    between atoms: _131  and  _132
REMARK   60  A    between atoms: _135  and  _137
REMARK   61  A    between atoms: _137  and  _138
REMARK   62  A    between atoms: _137  and  _140
REMARK   63  A    between atoms: _140  and  _141
REMARK   64  A    between atoms: _144  and  _146
REMARK   65  A    between atoms: _146  and  _147
REMARK   66  A    between atoms: _149  and  _151
REMARK   67  A    between atoms: _151  and  _152
REMARK   68  A    between atoms: _151  and  _154
REMARK   69  A    between atoms: _156  and  _158
REMARK   70  A    between atoms: _158  and  _159
REMARK   71  A    between atoms: _158  and  _161
REMARK   72  A    between atoms: _161  and  _162
REMARK   73  A    between atoms: _167  and  _168
REMARK   74  A    between atoms: _170  and  _172
REMARK   75  A    between atoms: _172  and  _173
REMARK   76  A    between atoms: _172  and  _175
REMARK   77  A    between atoms: _175  and  _176
REMARK   78  A    between atoms: _178  and  _180
REMARK   79  A    between atoms: _180  and  _181
REMARK   80  A    between atoms: _183  and  _185
REMARK   81  A    between atoms: _185  and  _186
REMARK   82  A    between atoms: _185  and  _188
REMARK   83  A    between atoms: _188  and  _189
REMARK   84  A    between atoms: _194  and  _195
REMARK   85  A    between atoms: _197  and  _199
REMARK   86  A    between atoms: _199  and  _200
REMARK   87  A    between atoms: _199  and  _202
REMARK   88  A    between atoms: _202  and  _203
REMARK   89  A    between atoms: _205  and  _207
REMARK   90  A    between atoms: _207  and  _208
REMARK   91  A    between atoms: _211  and  _213
REMARK   92  A    between atoms: _213  and  _214
REMARK   93  A    between atoms: _213  and  _216
REMARK   94  A    between atoms: _216  and  _217
REMARK   95  A    between atoms: _220  and  _222
REMARK   96  A    between atoms: _222  and  _223
REMARK   97  A    between atoms: _226  and  _228
REMARK   98  A    between atoms: _228  and  _229
REMARK   99  A    between atoms: _228  and  _231
REMARK  100  A    between atoms: _231  and  _232
REMARK  101  A    between atoms: _242  and  _244
REMARK  102  A    between atoms: _244  and  _245
REMARK  103  A    between atoms: _244  and  _247
REMARK  104  A    between atoms: _247  and  _248
REMARK  105  A    between atoms: _251  and  _253
REMARK  106  A    between atoms: _253  and  _254
REMARK  107  A    between atoms: _253  and  _256
REMARK  108  A    between atoms: _256  and  _257
REMARK  109  A    between atoms: _260  and  _262
REMARK  110  A    between atoms: _262  and  _263
REMARK  111  A    between atoms: _262  and  _265
REMARK  112  A    between atoms: _265  and  _266
REMARK  113  A    between atoms: _266  and  _267
REMARK  114  A    between atoms: _270  and  _272
REMARK  115  A    between atoms: _272  and  _273
REMARK  116  A    between atoms: _272  and  _275
REMARK  117  A    between atoms: _275  and  _276
REMARK  118  A    between atoms: _281  and  _282
REMARK  119  A    between atoms: _284  and  _286
REMARK  120  A    between atoms: _286  and  _287
REMARK  121  A    between atoms: _286  and  _289
REMARK  122  A    between atoms: _289  and  _290
REMARK  123  A    between atoms: _293  and  _294
REMARK  124  A    between atoms: _299  and  _301
REMARK  125  A    between atoms: _301  and  _302
REMARK  126  A    between atoms: _301  and  _304
REMARK  127  A    between atoms: _304  and  _305
REMARK  128  A    between atoms: _305  and  _306
REMARK  129  A    between atoms: _306  and  _307
REMARK  130  A    between atoms: _307  and  _308
REMARK  131  A    between atoms: _312  and  _314
REMARK  132  A    between atoms: _314  and  _315
REMARK  133  A    between atoms: _314  and  _317
REMARK  134  A    between atoms: _317  and  _318
REMARK  135  A    between atoms: _318  and  _319
REMARK  136  A    between atoms: _321  and  _323
REMARK  137  A    between atoms: _323  and  _324
REMARK  138  A    between atoms: _323  and  _326
REMARK  139  A    between atoms: _326  and  _327
REMARK  140  A    between atoms: _330  and  _332
REMARK  141  A    between atoms: _332  and  _333
REMARK  142  A    between atoms: _332  and  _335
REMARK  143  A    between atoms: _335  and  _336
REMARK  144  A    between atoms: _338  and  _340
REMARK  145  A    between atoms: _340  and  _341
REMARK  146  A    between atoms: _340  and  _343
REMARK  147  A    between atoms: _343  and  _344
REMARK  148  A    between atoms: _347  and  _349
REMARK  149  A    between atoms: _349  and  _350
REMARK  150  A    between atoms: _349  and  _352
REMARK  151  A    between atoms: _352  and  _353
REMARK  152  A    between atoms: _353  and  _354
REMARK  153  A    between atoms: _357  and  _359
REMARK  154  A    between atoms: _359  and  _360
REMARK  155  A    between atoms: _363  and  _364
REMARK  156  A    between atoms: _369  and  _371
REMARK  157  A    between atoms: _371  and  _372
REMARK  158  A    between atoms: _375  and  _377
REMARK  159  A    between atoms: _377  and  _378
REMARK  160  A    between atoms: _377  and  _380
REMARK  161  A    between atoms: _380  and  _381
REMARK  162  A    between atoms: _381  and  _382
REMARK  163  A    between atoms: _385  and  _387
REMARK  164  A    between atoms: _387  and  _388
REMARK  165  A    between atoms: _387  and  _390
REMARK  166  A    between atoms: _390  and  _391
REMARK  167  A    between atoms: _396  and  _398
REMARK  168  A    between atoms: _398  and  _399
REMARK  169  A    between atoms: _398  and  _401
REMARK  170  A    between atoms: _401  and  _402
REMARK  171  A    between atoms: _405  and  _407
REMARK  172  A    between atoms: _407  and  _408
REMARK  173  A    between atoms: _407  and  _410
REMARK  174  A    between atoms: _410  and  _411
REMARK  175  A    between atoms: _414  and  _416
REMARK  176  A    between atoms: _416  and  _417
REMARK  177  A    between atoms: _416  and  _419
REMARK  178  A    between atoms: _419  and  _420
REMARK  179  A    between atoms: _426  and  _428
REMARK  180  A    between atoms: _428  and  _429
REMARK  181  A    between atoms: _428  and  _431
REMARK  182  A    between atoms: _434  and  _436
REMARK  183  A    between atoms: _436  and  _437
REMARK  184  A    between atoms: _436  and  _439
REMARK  185  A    between atoms: _439  and  _440
REMARK  186  A    between atoms: _443  and  _445
REMARK  187  A    between atoms: _445  and  _446
REMARK  188  A    between atoms: _449  and  _451
REMARK  189  A    between atoms: _451  and  _452
REMARK  190  A    between atoms: _451  and  _454
REMARK  191  A    between atoms: _454  and  _455
REMARK  192  A    between atoms: _460  and  _462
REMARK  193  A    between atoms: _462  and  _463
REMARK  194  A    between atoms: _462  and  _465
REMARK  195  A    between atoms: _465  and  _466
REMARK  196  A    between atoms: _466  and  _467
REMARK  197  A    between atoms: _467  and  _468
REMARK  198  A    between atoms: _468  and  _469
REMARK  199  A    between atoms: _473  and  _475
REMARK  200  A    between atoms: _475  and  _476
REMARK  201  A    between atoms: _475  and  _478
REMARK  202  A    between atoms: _478  and  _479
REMARK  203  A    between atoms: _482  and  _484
REMARK  204  A    between atoms: _484  and  _485
REMARK  205  A    between atoms: _487  and  _489
REMARK  206  A    between atoms: _489  and  _490
REMARK  207  A    between atoms: _489  and  _492
REMARK  208  A    between atoms: _492  and  _493
REMARK  209  A    between atoms: _498  and  _499
REMARK  210  A    between atoms: _501  and  _503
REMARK  211  A    between atoms: _503  and  _504
REMARK  212  A    between atoms: _503  and  _506
REMARK  213  A    between atoms: _506  and  _507
REMARK  214  A    between atoms: _512  and  _513
REMARK  215  A    between atoms: _515  and  _517
REMARK  216  A    between atoms: _517  and  _518
REMARK  217  A    between atoms: _517  and  _520
REMARK  218  A    between atoms: _520  and  _521
REMARK  219  A    between atoms: _524  and  _526
REMARK  220  A    between atoms: _526  and  _527
REMARK  221  A    between atoms: _526  and  _529
REMARK  222  A    between atoms: _529  and  _530
REMARK  223  A    between atoms: _535  and  _537
REMARK  224  A    between atoms: _537  and  _538
REMARK  225  A    between atoms: _537  and  _540
REMARK  226  A    between atoms: _540  and  _541
REMARK  227  A    between atoms: _541  and  _542
REMARK  228  A    between atoms: _542  and  _543
REMARK  229  A    between atoms: _552  and  _554
REMARK  230  A    between atoms: _554  and  _555
REMARK  231  A    between atoms: _554  and  _557
REMARK  232  A    between atoms: _557  and  _558
REMARK  233  A    between atoms: _563  and  _564
REMARK  234  A    between atoms: _566  and  _568
REMARK  235  A    between atoms: _568  and  _569
REMARK  236  A    between atoms: _568  and  _571
REMARK  237  A    between atoms: _571  and  _572
REMARK                            x       y       z     vdW  Elec       q    Type
REMARK                         _______ _______ _______ _____ _____    ______ ____
ROOT
ATOM      1  CA  MET A   1      -2.757  14.185  -9.320  0.00  0.00    +0.134 C 
ENDROOT
BRANCH   1   2
ATOM      2  N   MET A   1      -3.965  14.140  -8.506  0.00  0.00    -0.239 NA
ATOM      3  H   MET A   1      -4.880  13.929  -8.952  0.00  0.00    +0.142 HD
ENDBRANCH   1   2
BRANCH   1   4
ATOM      4  C   MET A   1      -2.124  15.571  -9.304  0.00  0.00    +0.224 C 
ATOM      5  O   MET A   1      -0.922  15.707  -9.080  0.00  0.00    -0.287 OA
ENDBRANCH   1   4
BRANCH   1   6
ATOM      6  CB  MET A   1      -3.060  13.755 -10.752  0.00  0.00    +0.037 C 
BRANCH   6   7
ATOM      7  CG  MET A   1      -3.505  12.310 -10.863  0.00  0.00    +0.059 C 
BRANCH   7   8
ATOM      8  SD  MET A   1      -3.950  11.892 -12.563  0.00  0.00    -0.139 S 
ATOM      9  CE  MET A   1      -5.323  12.921 -12.865  0.00  0.00    +0.069 C 
ENDBRANCH   7   8
ENDBRANCH   6   7
ENDBRANCH   1   6
TORSDOF 5
REMARK  Name = ../refined-set-2016/4ymg/4ymg_pocket.pdb
REMARK  237 active torsions:
REMARK  status: ('A' for Active; 'I' for Inactive)
REMARK    1  A    between atoms: _1  and  _3
REMARK    2  A    between atoms: _3  and  _4
REMARK    3  A    between atoms: _3  and  _6
REMARK    4  A    between atoms: _6  and  _7
REMARK    5  A    between atoms: _12  and  _14
REMARK    6  A    between atoms: _14  and  _15
REMARK    7  A    between atoms: _14  and  _17
REMARK    8  A    between atoms: _17  and  _18
REMARK    9  A    between atoms: _28  and  _30
REMARK   10  A    between atoms: _30  and  _31
REMARK   11  A    between atoms: _30  and  _33
REMARK   12  A    between atoms: _33  and  _34
REMARK   13  A    between atoms: _37  and  _39
REMARK   14  A    between atoms: _39  and  _40
REMARK   15  A    between atoms: _39  and  _42
REMARK   16  A    between atoms: _42  and  _43
REMARK   17  A    between atoms: _46  and  _48
REMARK   18  A    between atoms: _48  and  _49
REMARK   19  A    between atoms: _52  and  _54
REMARK   20  A    between atoms: _54  and  _55
REMARK   21  A    between atoms: _54  and  _57
REMARK   22  A    between atoms: _57  and  _58
REMARK   23  A    between atoms: _61  and  _63
REMARK   24  A    between atoms: _63  and  _64
REMARK   25  A    between atoms: _63  and  _66
REMARK   26  A    between atoms: _66  and  _67
REMARK   27  A    between atoms: _67  and  _68
REMARK   28  A    between atoms: _68  and  _69
REMARK   29  A    between atoms: _69  and  _70
REMARK   30  A    between atoms: _74  and  _76
REMARK   31  A    between atoms: _76  and  _77
REMARK   32  A    between atoms: _76  and  _79
REMARK   33  A    between atoms: _79  and  _80
REMARK   34  A    between atoms: _80  and  _81
REMARK   35  A    between atoms: _83  and  _85
REMARK   36  A    between atoms: _85  and  _86
REMARK   37  A    between atoms: _85  and  _88
REMARK   38  A    between atoms: _88  and  _89
REMARK   39  A    between atoms: _91  and  _93
REMARK   40  A    between atoms: _93  and  _94
REMARK   41  A    between atoms: _93  and  _96
REMARK   42  A    between atoms: _96  and  _97
REMARK   43  A    between atoms: _99  and  _101
REMARK   44  A    between atoms: _101  and  _102
REMARK   45  A    between atoms: _101  and  _104
REMARK   46  A    between atoms: _104  and  _105
REMARK   47  A    between atoms: _105  and  _106
REMARK   48  A    between atoms: _111  and  _113
REMARK   49  A    between atoms: _113  and  _114
REMARK   50  A    between atoms: _116  and  _118
REMARK   51  A    between atoms: _118  and  _119
REMARK   52  A    between atoms: _118  and  _121
REMARK   53  A    between atoms: _121  and  _122
REMARK   54  A    between atoms: _122  and  _123
REMARK   55  A    between atoms: _125  and  _127
REMARK   56  A    between atoms: _127  and  _128
REMARK   57  A    between atoms: _127  and  _130
REMARK   58  A    between atoms: _130  and  _131
REMARK   59  A    between atoms: _131  and  _132
REMARK   60  A    between atoms: _135  and  _137
REMARK   61  A    between atoms: _137  and  _138
REMARK   62  A    between atoms: _137  and  _140
REMARK   63  A    between atoms: _140  and  _141
REMARK   64  A    between atoms: _144  and  _146
REMARK   65  A    between atoms: _146  and  _147
REMARK   66  A    between atoms: _149  and  _151
REMARK   67  A    between atoms: _151  and  _152
REMARK   68  A    between atoms: _151  and  _154
REMARK   69  A    between atoms: _156  and  _158
REMARK   70  A    between atoms: _158  and  _159
REMARK   71  A    between atoms: _158  and  _161
REMARK   72  A    between atoms: _161  and  _162
REMARK   73  A    between atoms: _167  and  _168
REMARK   74  A    between atoms: _170  and  _172
REMARK   75  A    between atoms: _172  and  _173
REMARK   76  A    between atoms: _172  and  _175
REMARK   77  A    between atoms: _175  and  _176
REMARK   78  A    between atoms: _178  and  _180
REMARK   79  A    between atoms: _180  and  _181
REMARK   80  A    between atoms: _183  and  _185
REMARK   81  A    between atoms: _185  and  _186
REMARK   82  A    between atoms: _185  and  _188
REMARK   83  A    between atoms: _188  and  _189
REMARK   84  A    between atoms: _194  and  _195
REMARK   85  A    between atoms: _197  and  _199
REMARK   86  A    between atoms: _199  and  _200
REMARK   87  A    between atoms: _199  and  _202
REMARK   88  A    between atoms: _202  and  _203
REMARK   89  A    between atoms: _205  and  _207
REMARK   90  A    between atoms: _207  and  _208
REMARK   91  A    between atoms: _211  and  _213
REMARK   92  A    between atoms: _213  and  _214
REMARK   93  A    between atoms: _213  and  _216
REMARK   94  A    between atoms: _216  and  _217
REMARK   95  A    between atoms: _220  and  _222
REMARK   96  A    between atoms: _222  and  _223
REMARK   97  A    between atoms: _226  and  _228
REMARK   98  A    between atoms: _228  and  _229
REMARK   99  A    between atoms: _228  and  _231
REMARK  100  A    between atoms: _231  and  _232
REMARK  101  A    between atoms: _242  and  _244
REMARK  102  A    between atoms: _244  and  _245
REMARK  103  A    between atoms: _244  and  _247
REMARK  104  A    between atoms: _247  and  _248
REMARK  105  A    between atoms: _251  and  _253
REMARK  106  A    between atoms: _253  and  _254
REMARK  107  A    between atoms: _253  and  _256
REMARK  108  A    between atoms: _256  and  _257
REMARK  109  A    between atoms: _260  and  _262
REMARK  110  A    between atoms: _262  and  _263
REMARK  111  A    between atoms: _262  and  _265
REMARK  112  A    between atoms: _265  and  _266
REMARK  113  A    between atoms: _266  and  _267
REMARK  114  A    between atoms: _270  and  _272
REMARK  115  A    between atoms: _272  and  _273
REMARK  116  A    between atoms: _272  and  _275
REMARK  117  A    between atoms: _275  and  _276
REMARK  118  A    between atoms: _281  and  _282
REMARK  119  A    between atoms: _284  and  _286
REMARK  120  A    between atoms: _286  and  _287
REMARK  121  A    between atoms: _286  and  _289
REMARK  122  A    between atoms: _289  and  _290
REMARK  123  A    between atoms: _293  and  _294
REMARK  124  A    between atoms: _299  and  _301
REMARK  125  A    between atoms: _301  and  _302
REMARK  126  A    between atoms: _301  and  _304
REMARK  127  A    between atoms: _304  and  _305
REMARK  128  A    between atoms: _305  and  _306
REMARK  129  A    between atoms: _306  and  _307
REMARK  130  A    between atoms: _307  and  _308
REMARK  131  A    between atoms: _312  and  _314
REMARK  132  A    between atoms: _314  and  _315
REMARK  133  A    between atoms: _314  and  _317
REMARK  134  A    between atoms: _317  and  _318
REMARK  135  A    between atoms: _318  and  _319
REMARK  136  A    between atoms: _321  and  _323
REMARK  137  A    between atoms: _323  and  _324
REMARK  138  A    between atoms: _323  and  _326
REMARK  139  A    between atoms: _326  and  _327
REMARK  140  A    between atoms: _330  and  _332
REMARK  141  A    between atoms: _332  and  _333
REMARK  142  A    between atoms: _332  and  _335
REMARK  143  A    between atoms: _335  and  _336
REMARK  144  A    between atoms: _338  and  _340
REMARK  145  A    between atoms: _340  and  _341
REMARK  146  A    between atoms: _340  and  _343
REMARK  147  A    between atoms: _343  and  _344
REMARK  148  A    between atoms: _347  and  _349
REMARK  149  A    between atoms: _349  and  _350
REMARK  150  A    between atoms: _349  and  _352
REMARK  151  A    between atoms: _352  and  _353
REMARK  152  A    between atoms: _353  and  _354
REMARK  153  A    between atoms: _357  and  _359
REMARK  154  A    between atoms: _359  and  _360
REMARK  155  A    between atoms: _363  and  _364
REMARK  156  A    between atoms: _369  and  _371
REMARK  157  A    between atoms: _371  and  _372
REMARK  158  A    between atoms: _375  and  _377
REMARK  159  A    between atoms: _377  and  _378
REMARK  160  A    between atoms: _377  and  _380
REMARK  161  A    between atoms: _380  and  _381
REMARK  162  A    between atoms: _381  and  _382
REMARK  163  A    between atoms: _385  and  _387
REMARK  164  A    between atoms: _387  and  _388
REMARK  165  A    between atoms: _387  and  _390
REMARK  166  A    between atoms: _390  and  _391
REMARK  167  A    between atoms: _396  and  _398
REMARK  168  A    between atoms: _398  and  _399
REMARK  169  A    between atoms: _398  and  _401
REMARK  170  A    between atoms: _401  and  _402
REMARK  171  A    between atoms: _405  and  _407
REMARK  172  A    between atoms: _407  and  _408
REMARK  173  A    between atoms: _407  and  _410
REMARK  174  A    between atoms: _410  and  _411
REMARK  175  A    between atoms: _414  and  _416
REMARK  176  A    between atoms: _416  and  _417
REMARK  177  A    between atoms: _416  and  _419
REMARK  178  A    between atoms: _419  and  _420
REMARK  179  A    between atoms: _426  and  _428
REMARK  180  A    between atoms: _428  and  _429
REMARK  181  A    between atoms: _428  and  _431
REMARK  182  A    between atoms: _434  and  _436
REMARK  183  A    between atoms: _436  and  _437
REMARK  184  A    between atoms: _436  and  _439
REMARK  185  A    between atoms: _439  and  _440
REMARK  186  A    between atoms: _443  and  _445
REMARK  187  A    between atoms: _445  and  _446
REMARK  188  A    between atoms: _449  and  _451
REMARK  189  A    between atoms: _451  and  _452
REMARK  190  A    between atoms: _451  and  _454
REMARK  191  A    between atoms: _454  and  _455
REMARK  192  A    between atoms: _460  and  _462
REMARK  193  A    between atoms: _462  and  _463
REMARK  194  A    between atoms: _462  and  _465
REMARK  195  A    between atoms: _465  and  _466
REMARK  196  A    between atoms: _466  and  _467
REMARK  197  A    between atoms: _467  and  _468
REMARK  198  A    between atoms: _468  and  _469
REMARK  199  A    between atoms: _473  and  _475
REMARK  200  A    between atoms: _475  and  _476
REMARK  201  A    between atoms: _475  and  _478
REMARK  202  A    between atoms: _478  and  _479
REMARK  203  A    between atoms: _482  and  _484
REMARK  204  A    between atoms: _484  and  _485
REMARK  205  A    between atoms: _487  and  _489
REMARK  206  A    between atoms: _489  and  _490
REMARK  207  A    between atoms: _489  and  _492
REMARK  208  A    between atoms: _492  and  _493
REMARK  209  A    between atoms: _498  and  _499
REMARK  210  A    between atoms: _501  and  _503
REMARK  211  A    between atoms: _503  and  _504
REMARK  212  A    between atoms: _503  and  _506
REMARK  213  A    between atoms: _506  and  _507
REMARK  214  A    between atoms: _512  and  _513
REMARK  215  A    between atoms: _515  and  _517
REMARK  216  A    between atoms: _517  and  _518
REMARK  217  A    between atoms: _517  and  _520
REMARK  218  A    between atoms: _520  and  _521
REMARK  219  A    between atoms: _524  and  _526
REMARK  220  A    between atoms: _526  and  _527
REMARK  221  A    between atoms: _526  and  _529
REMARK  222  A    between atoms: _529  and  _530
REMARK  223  A    between atoms: _535  and  _537
REMARK  224  A    between atoms: _537  and  _538
REMARK  225  A    between atoms: _537  and  _540
REMARK  226  A    between atoms: _540  and  _541
REMARK  227  A    between atoms: _541  and  _542
REMARK  228  A    between atoms: _542  and  _543
REMARK  229  A    between atoms: _552  and  _554
REMARK  230  A    between atoms: _554  and  _555
REMARK  231  A    between atoms: _554  and  _557
REMARK  232  A    between atoms: _557  and  _558
REMARK  233  A    between atoms: _563  and  _564
REMARK  234  A    between atoms: _566  and  _568
REMARK  235  A    between atoms: _568  and  _569
REMARK  236  A    between atoms: _568  and  _571
REMARK  237  A    between atoms: _571  and  _572
REMARK                            x       y       z     vdW  Elec       q    Type
REMARK                         _______ _______ _______ _____ _____    ______ ____
ROOT
ATOM      1  C   GLY A   7      -4.775  13.322 -20.852  0.00  0.00    +0.243 C 
ATOM      2  N   TYR A   8      -5.835  12.834 -20.218  0.00  0.00    -0.297 N 
ATOM      3  H   TYR A   8      -6.317  11.993 -20.595  0.00  0.00    +0.150 HD
ATOM      4  O   GLY A   7      -4.135  14.262 -20.417  0.00  0.00    -0.273 OA
ENDROOT
BRANCH   2   5
ATOM      5  CA  TYR A   8      -6.331  13.464 -19.000  0.00  0.00    +0.153 C 
BRANCH   5   6
ATOM      6  C   TYR A   8      -5.279  13.546 -17.892  0.00  0.00    +0.241 C 
ATOM      7  O   TYR A   8      -5.028  14.626 -17.354  0.00  0.00    -0.273 OA
ATOM      8  N   SER A   9      -4.668  12.409 -17.547  0.00  0.00    -0.295 N 
ATOM      9  H   SER A   9      -4.860  11.533 -18.073  0.00  0.00    +0.150 HD
BRANCH   8  10
ATOM     10  CA  SER A   9      -3.735  12.402 -16.434  0.00  0.00    +0.178 C 
BRANCH  10  11
ATOM     11  C   SER A   9      -2.465  13.141 -16.840  0.00  0.00    +0.243 C 
ATOM     12  O   SER A   9      -1.864  13.832 -16.020  0.00  0.00    -0.273 OA
ATOM     13  N   ALA A  10      -2.077  13.031 -18.109  0.00  0.00    -0.297 N 
ATOM     14  H   ALA A  10      -2.578  12.381 -18.748  0.00  0.00    +0.150 HD
BRANCH  13  15
ATOM     15  CA  ALA A  10      -0.945  13.823 -18.614  0.00  0.00    +0.149 C 
ATOM     16  CB  ALA A  10      -0.696  13.508 -20.090  0.00  0.00    +0.031 C 
BRANCH  15  17
ATOM     17  C   ALA A  10      -1.160  15.329 -18.429  0.00  0.00    +0.241 C 
ATOM     18  O   ALA A  10      -0.244  16.065 -18.030  0.00  0.00    -0.273 OA
ATOM     19  N   LEU A  11      -2.368  15.796 -18.730  0.00  0.00    -0.297 N 
ATOM     20  H   LEU A  11      -3.106  15.143 -19.064  0.00  0.00    +0.150 HD
BRANCH  19  21
ATOM     21  CA  LEU A  11      -2.665  17.214 -18.595  0.00  0.00    +0.149 C 
BRANCH  21  22
ATOM     22  C   LEU A  11      -2.762  17.609 -17.131  0.00  0.00    +0.241 C 
ATOM     23  N   ALA A  12      -3.166  16.670 -16.274  0.00  0.00    -0.297 N 
ATOM     24  H   ALA A  12      -3.475  15.742 -16.628  0.00  0.00    +0.150 HD
ATOM     25  O   LEU A  11      -2.454  18.749 -16.777  0.00  0.00    -0.273 OA
BRANCH  23  26
ATOM     26  CA  ALA A  12      -3.176  16.944 -14.828  0.00  0.00    +0.149 C 
ATOM     27  CB  ALA A  12      -3.881  15.826 -14.057  0.00  0.00    +0.031 C 
BRANCH  26  28
ATOM     28  C   ALA A  12      -1.754  17.129 -14.306  0.00  0.00    +0.241 C 
ATOM     29  O   ALA A  12      -1.484  18.084 -13.563  0.00  0.00    -0.273 OA
ATOM     30  N   TRP A  13      -0.852  16.219 -14.679  0.00  0.00    -0.298 N 
ATOM     31  H   TRP A  13      -1.157  15.400 -15.243  0.00  0.00    +0.150 HD
BRANCH  30  32
ATOM     32  CA  TRP A  13       0.558  16.351 -14.309  0.00  0.00    +0.141 C 
BRANCH  32  33
ATOM     33  C   TRP A  13       1.113  17.676 -14.831  0.00  0.00    +0.227 C 
ATOM     34  O   TRP A  13       1.838  18.386 -14.125  0.00  0.00    -0.286 OA
ENDBRANCH  32  33
BRANCH  32  35
ATOM     35  CB  TRP A  13       1.406  15.176 -14.851  0.00  0.00    +0.056 C 
BRANCH  35  36
ATOM     36  CG  TRP A  13       0.969  13.811 -14.398  0.00  0.00    -0.002 A 
ATOM     37  CD2 TRP A  13       0.736  13.376 -13.051  0.00  0.00    +0.013 A 
ATOM     38  CE3 TRP A  13       0.851  13.988 -11.797  0.00  0.00    +0.001 A 
ATOM     39  CZ3 TRP A  13       0.548  13.238 -10.651  0.00  0.00    +0.000 A 
ATOM     40  CH2 TRP A  13       0.148  11.896 -10.753  0.00  0.00    +0.001 A 
ATOM     41  CZ2 TRP A  13       0.033  11.275 -11.970  0.00  0.00    +0.017 A 
ATOM     42  CE2 TRP A  13       0.333  12.022 -13.113  0.00  0.00    +0.056 A 
ATOM     43  NE1 TRP A  13       0.317  11.658 -14.434  0.00  0.00    -0.352 N 
ATOM     44  HE1 TRP A  13       0.055  10.720 -14.800  0.00  0.00    +0.166 HD
ATOM     45  CD1 TRP A  13       0.704  12.734 -15.197  0.00  0.00    +0.068 A 
ENDBRANCH  35  36
ENDBRANCH  32  35
ENDBRANCH  30  32
ENDBRANCH  26  28
ENDBRANCH  23  26
ENDBRANCH  21  22
BRANCH  21  46
ATOM     46  CB  LEU A  11      -3.958  17.578 -19.331  0.00  0.00    +0.029 C 
BRANCH  46  47
ATOM     47  CG  LEU A  11      -3.854  17.535 -20.855  0.00  0.00    +0.002 C 
ATOM     48  CD2 LEU A  11      -2.968  18.668 -21.376  0.00  0.00    +0.000 C 
ATOM     49  CD1 LEU A  11      -5.234  17.604 -21.489  0.00  0.00    +0.000 C 
ENDBRANCH  46  47
ENDBRANCH  21  46
ENDBRANCH  19  21
ENDBRANCH  15  17
ENDBRANCH  13  15
ENDBRANCH  10  11
BRANCH  10  50
ATOM     50  CB  SER A   9      -3.434  10.968 -15.955  0.00  0.00    +0.166 C 
BRANCH  50  51
ATOM     51  OG  SER A   9      -3.113  10.094 -17.025  0.00  0.00    -0.380 OA
ATOM     52  H   SER A   9      -2.312  10.433 -17.497  0.00  0.00    +0.211 HD
ENDBRANCH  50  51
ENDBRANCH  10  50
ENDBRANCH   8  10
ENDBRANCH   5   6
BRANCH   5  53
ATOM     53  CB  TYR A   8      -7.559  12.716 -18.482  0.00  0.00    +0.055 C 
BRANCH  53  54
ATOM     54  CG  TYR A   8      -8.112  13.252 -17.176  0.00  0.00    -0.020 A 
ATOM     55  CD2 TYR A   8      -8.079  12.482 -16.019  0.00  0.00    -0.001 A 
ATOM     56  CE2 TYR A   8      -8.606  12.967 -14.822  0.00  0.00    +0.036 A 
ATOM     57  CZ  TYR A   8      -9.149  14.230 -14.778  0.00  0.00    +0.134 A 
ATOM     58  CE1 TYR A   8      -9.207  15.011 -15.920  0.00  0.00    +0.036 A 
ATOM     59  CD1 TYR A   8      -8.687  14.523 -17.107  0.00  0.00    -0.001 A 
BRANCH  57  60
ATOM     60  OH  TYR A   8      -9.684  14.704 -13.594  0.00  0.00    -0.506 OA
ATOM     61  HH  TYR A   8     -10.423  14.111 -13.307  0.00  0.00    +0.292 HD
ENDBRANCH  57  60
ENDBRANCH  53  54
ENDBRANCH   5  53
ENDBRANCH   2   5
BRANCH   1  62
ATOM     62  CA  GLY A   7      -4.362  12.649 -22.150  0.00  0.00    +0.176 C 
BRANCH  62  64
ATOM     63  C   SER A   6      -6.189  11.884 -23.555  0.00  0.00    +0.243 C 
ATOM     64  N   GLY A   7      -5.284  11.632 -22.614  0.00  0.00    -0.295 N 
ATOM     65  H   GLY A   7      -5.237  10.679 -22.200  0.00  0.00    +0.150 HD
ATOM     66  O   SER A   6      -6.350  13.003 -24.052  0.00  0.00    -0.273 OA
BRANCH  63  67
ATOM     67  CA  SER A   6      -7.064  10.704 -23.992  0.00  0.00    +0.178 C 
BRANCH  67  69
ATOM     68  C   TYR A   5      -5.913   8.557 -23.878  0.00  0.00    +0.241 C 
ATOM     69  N   SER A   6      -6.721   9.456 -23.306  0.00  0.00    -0.295 N 
ATOM     70  H   SER A   6      -7.111   9.266 -22.361  0.00  0.00    +0.150 HD
ATOM     71  O   TYR A   5      -5.379   8.759 -24.966  0.00  0.00    -0.273 OA
BRANCH  68  72
ATOM     72  CA  TYR A   5      -5.630   7.230 -23.138  0.00  0.00    +0.153 C 
BRANCH  72  75
ATOM     73  C   CYS A   4      -3.646   8.153 -22.020  0.00  0.00    +0.242 C 
ATOM     74  O   CYS A   4      -4.267   9.101 -21.526  0.00  0.00    -0.273 OA
ATOM     75  N   TYR A   5      -4.227   7.171 -22.710  0.00  0.00    -0.297 N 
ATOM     76  H   TYR A   5      -3.665   6.331 -22.954  0.00  0.00    +0.150 HD
BRANCH  73  77
ATOM     77  CA  CYS A   4      -2.130   8.049 -21.880  0.00  0.00    +0.160 C 
BRANCH  77  80
ATOM     78  C   GLY A   3      -1.863   6.070 -20.509  0.00  0.00    +0.243 C 
ATOM     79  O   GLY A   3      -2.462   6.601 -19.568  0.00  0.00    -0.273 OA
ATOM     80  N   CYS A   4      -1.689   6.678 -21.673  0.00  0.00    -0.296 N 
ATOM     81  H   CYS A   4      -1.229   6.166 -22.453  0.00  0.00    +0.150 HD
BRANCH  78  82
ATOM     82  CA  GLY A   3      -1.276   4.666 -20.400  0.00  0.00    +0.176 C 
BRANCH  82  85
ATOM     83  C   ILE A   2       0.641   4.389 -18.926  0.00  0.00    +0.241 C 
ATOM     84  O   ILE A   2      -0.069   4.019 -17.990  0.00  0.00    -0.273 OA
ATOM     85  N   GLY A   3       0.153   4.703 -20.126  0.00  0.00    -0.295 N 
ATOM     86  H   GLY A   3       0.809   4.981 -20.884  0.00  0.00    +0.150 HD
BRANCH  83  87
ATOM     87  CA  ILE A   2       2.150   4.544 -18.749  0.00  0.00    +0.148 C 
BRANCH  87  89
ATOM     88  C   GLU A   1       2.988   6.742 -18.178  0.00  0.00    +0.238 C 
ATOM     89  N   ILE A   2       2.419   5.612 -17.798  0.00  0.00    -0.297 N 
ATOM     90  H   ILE A   2       2.158   5.483 -16.800  0.00  0.00    +0.150 HD
ATOM     91  O   GLU A   1       3.423   6.938 -19.327  0.00  0.00    -0.274 OA
BRANCH  88  92
ATOM     92  CA  GLU A   1       3.139   7.780 -17.078  0.00  0.00    +0.145 C 
BRANCH  92  93
ATOM     93  N   GLU A   1       4.348   8.541 -17.305  0.00  0.00    -0.238 NA
ATOM     94  H   GLU A   1       4.531   8.990 -18.225  0.00  0.00    +0.142 HD
ENDBRANCH  92  93
BRANCH  92  95
ATOM     95  CB  GLU A   1       1.904   8.687 -16.980  0.00  0.00    +0.038 C 
BRANCH  95  96
ATOM     96  CG  GLU A   1       1.438   9.294 -18.259  0.00  0.00    +0.116 C 
BRANCH  96  97
ATOM     97  CD  GLU A   1       0.073   9.952 -18.124  0.00  0.00    +0.365 C 
ATOM     98  OE2 GLU A   1      -0.375  10.217 -16.978  0.00  0.00    -0.246 OA
ATOM     99  OE1 GLU A   1      -0.562  10.184 -19.173  0.00  0.00    -0.246 OA
ENDBRANCH  96  97
ENDBRANCH  95  96
ENDBRANCH  92  95
ENDBRANCH  88  92
ENDBRANCH  87  89
BRANCH  87 100
ATOM    100  CB  ILE A   2       2.779   3.220 -18.301  0.00  0.00    +0.027 C 
ATOM    101  CG2 ILE A   2       2.653   2.167 -19.421  0.00  0.00    +0.002 C 
BRANCH 100 102
ATOM    102  CG1 ILE A   2       4.239   3.453 -17.894  0.00  0.00    +0.002 C 
ATOM    103  CD1 ILE A   2       4.951   2.211 -17.385  0.00  0.00    +0.000 C 
ENDBRANCH 100 102
ENDBRANCH  87 100
ENDBRANCH  83  87
ENDBRANCH  82  85
ENDBRANCH  78  82
ENDBRANCH  77  80
BRANCH  77 104
ATOM    104  CB  CYS A   4      -1.471   8.628 -23.125  0.00  0.00    +0.098 C 
ATOM    105  SG  CYS A   4      -1.709  10.406 -23.265  0.00  0.00    -0.080 S 
ENDBRANCH  77 104
ENDBRANCH  73  77
ENDBRANCH  72  75
BRANCH  72 106
ATOM    106  CB  TYR A   5      -6.580   7.021 -21.950  0.00  0.00    +0.055 C 
BRANCH 106 107
ATOM    107  CG  TYR A   5      -8.022   6.848 -22.381  0.00  0.00    -0.020 A 
ATOM    108  CD2 TYR A   5      -9.009   7.725 -21.940  0.00  0.00    -0.001 A 
ATOM    109  CE2 TYR A   5     -10.319   7.585 -22.342  0.00  0.00    +0.036 A 
ATOM    110  CZ  TYR A   5     -10.665   6.557 -23.199  0.00  0.00    +0.134 A 
ATOM    111  CE1 TYR A   5      -9.708   5.665 -23.654  0.00  0.00    +0.036 A 
ATOM    112  CD1 TYR A   5      -8.395   5.812 -23.247  0.00  0.00    -0.001 A 
BRANCH 110 113
ATOM    113  OH  TYR A   5     -11.971   6.440 -23.602  0.00  0.00    -0.506 OA
ATOM    114  HH  TYR A   5     -12.060   5.663 -24.208  0.00  0.00    +0.292 HD
ENDBRANCH 110 113
ENDBRANCH 106 107
ENDBRANCH  72 106
ENDBRANCH  68  72
ENDBRANCH  67  69
BRANCH  67 115
ATOM    115  CB  SER A   6      -8.541  11.055 -23.767  0.00  0.00    +0.166 C 
BRANCH 115 116
ATOM    116  OG  SER A   6      -8.747  11.604 -22.474  0.00  0.00    -0.380 OA
ATOM    117  H   SER A   6      -9.706  11.820 -22.358  0.00  0.00    +0.211 HD
ENDBRANCH 115 116
ENDBRANCH  67 115
ENDBRANCH  63  67
ENDBRANCH  62  64
ENDBRANCH   1  62
TORSDOF 46
REMARK  Name = ../refined-set-2016/4ymg/4ymg_pocket.pdb
REMARK  237 active torsions:
REMARK  status: ('A' for Active; 'I' for Inactive)
REMARK    1  A    between atoms: _1  and  _3
REMARK    2  A    between atoms: _3  and  _4
REMARK    3  A    between atoms: _3  and  _6
REMARK    4  A    between atoms: _6  and  _7
REMARK    5  A    between atoms: _12  and  _14
REMARK    6  A    between atoms: _14  and  _15
REMARK    7  A    between atoms: _14  and  _17
REMARK    8  A    between atoms: _17  and  _18
REMARK    9  A    between atoms: _28  and  _30
REMARK   10  A    between atoms: _30  and  _31
REMARK   11  A    between atoms: _30  and  _33
REMARK   12  A    between atoms: _33  and  _34
REMARK   13  A    between atoms: _37  and  _39
REMARK   14  A    between atoms: _39  and  _40
REMARK   15  A    between atoms: _39  and  _42
REMARK   16  A    between atoms: _42  and  _43
REMARK   17  A    between atoms: _46  and  _48
REMARK   18  A    between atoms: _48  and  _49
REMARK   19  A    between atoms: _52  and  _54
REMARK   20  A    between atoms: _54  and  _55
REMARK   21  A    between atoms: _54  and  _57
REMARK   22  A    between atoms: _57  and  _58
REMARK   23  A    between atoms: _61  and  _63
REMARK   24  A    between atoms: _63  and  _64
REMARK   25  A    between atoms: _63  and  _66
REMARK   26  A    between atoms: _66  and  _67
REMARK   27  A    between atoms: _67  and  _68
REMARK   28  A    between atoms: _68  and  _69
REMARK   29  A    between atoms: _69  and  _70
REMARK   30  A    between atoms: _74  and  _76
REMARK   31  A    between atoms: _76  and  _77
REMARK   32  A    between atoms: _76  and  _79
REMARK   33  A    between atoms: _79  and  _80
REMARK   34  A    between atoms: _80  and  _81
REMARK   35  A    between atoms: _83  and  _85
REMARK   36  A    between atoms: _85  and  _86
REMARK   37  A    between atoms: _85  and  _88
REMARK   38  A    between atoms: _88  and  _89
REMARK   39  A    between atoms: _91  and  _93
REMARK   40  A    between atoms: _93  and  _94
REMARK   41  A    between atoms: _93  and  _96
REMARK   42  A    between atoms: _96  and  _97
REMARK   43  A    between atoms: _99  and  _101
REMARK   44  A    between atoms: _101  and  _102
REMARK   45  A    between atoms: _101  and  _104
REMARK   46  A    between atoms: _104  and  _105
REMARK   47  A    between atoms: _105  and  _106
REMARK   48  A    between atoms: _111  and  _113
REMARK   49  A    between atoms: _113  and  _114
REMARK   50  A    between atoms: _116  and  _118
REMARK   51  A    between atoms: _118  and  _119
REMARK   52  A    between atoms: _118  and  _121
REMARK   53  A    between atoms: _121  and  _122
REMARK   54  A    between atoms: _122  and  _123
REMARK   55  A    between atoms: _125  and  _127
REMARK   56  A    between atoms: _127  and  _128
REMARK   57  A    between atoms: _127  and  _130
REMARK   58  A    between atoms: _130  and  _131
REMARK   59  A    between atoms: _131  and  _132
REMARK   60  A    between atoms: _135  and  _137
REMARK   61  A    between atoms: _137  and  _138
REMARK   62  A    between atoms: _137  and  _140
REMARK   63  A    between atoms: _140  and  _141
REMARK   64  A    between atoms: _144  and  _146
REMARK   65  A    between atoms: _146  and  _147
REMARK   66  A    between atoms: _149  and  _151
REMARK   67  A    between atoms: _151  and  _152
REMARK   68  A    between atoms: _151  and  _154
REMARK   69  A    between atoms: _156  and  _158
REMARK   70  A    between atoms: _158  and  _159
REMARK   71  A    between atoms: _158  and  _161
REMARK   72  A    between atoms: _161  and  _162
REMARK   73  A    between atoms: _167  and  _168
REMARK   74  A    between atoms: _170  and  _172
REMARK   75  A    between atoms: _172  and  _173
REMARK   76  A    between atoms: _172  and  _175
REMARK   77  A    between atoms: _175  and  _176
REMARK   78  A    between atoms: _178  and  _180
REMARK   79  A    between atoms: _180  and  _181
REMARK   80  A    between atoms: _183  and  _185
REMARK   81  A    between atoms: _185  and  _186
REMARK   82  A    between atoms: _185  and  _188
REMARK   83  A    between atoms: _188  and  _189
REMARK   84  A    between atoms: _194  and  _195
REMARK   85  A    between atoms: _197  and  _199
REMARK   86  A    between atoms: _199  and  _200
REMARK   87  A    between atoms: _199  and  _202
REMARK   88  A    between atoms: _202  and  _203
REMARK   89  A    between atoms: _205  and  _207
REMARK   90  A    between atoms: _207  and  _208
REMARK   91  A    between atoms: _211  and  _213
REMARK   92  A    between atoms: _213  and  _214
REMARK   93  A    between atoms: _213  and  _216
REMARK   94  A    between atoms: _216  and  _217
REMARK   95  A    between atoms: _220  and  _222
REMARK   96  A    between atoms: _222  and  _223
REMARK   97  A    between atoms: _226  and  _228
REMARK   98  A    between atoms: _228  and  _229
REMARK   99  A    between atoms: _228  and  _231
REMARK  100  A    between atoms: _231  and  _232
REMARK  101  A    between atoms: _242  and  _244
REMARK  102  A    between atoms: _244  and  _245
REMARK  103  A    between atoms: _244  and  _247
REMARK  104  A    between atoms: _247  and  _248
REMARK  105  A    between atoms: _251  and  _253
REMARK  106  A    between atoms: _253  and  _254
REMARK  107  A    between atoms: _253  and  _256
REMARK  108  A    between atoms: _256  and  _257
REMARK  109  A    between atoms: _260  and  _262
REMARK  110  A    between atoms: _262  and  _263
REMARK  111  A    between atoms: _262  and  _265
REMARK  112  A    between atoms: _265  and  _266
REMARK  113  A    between atoms: _266  and  _267
REMARK  114  A    between atoms: _270  and  _272
REMARK  115  A    between atoms: _272  and  _273
REMARK  116  A    between atoms: _272  and  _275
REMARK  117  A    between atoms: _275  and  _276
REMARK  118  A    between atoms: _281  and  _282
REMARK  119  A    between atoms: _284  and  _286
REMARK  120  A    between atoms: _286  and  _287
REMARK  121  A    between atoms: _286  and  _289
REMARK  122  A    between atoms: _289  and  _290
REMARK  123  A    between atoms: _293  and  _294
REMARK  124  A    between atoms: _299  and  _301
REMARK  125  A    between atoms: _301  and  _302
REMARK  126  A    between atoms: _301  and  _304
REMARK  127  A    between atoms: _304  and  _305
REMARK  128  A    between atoms: _305  and  _306
REMARK  129  A    between atoms: _306  and  _307
REMARK  130  A    between atoms: _307  and  _308
REMARK  131  A    between atoms: _312  and  _314
REMARK  132  A    between atoms: _314  and  _315
REMARK  133  A    between atoms: _314  and  _317
REMARK  134  A    between atoms: _317  and  _318
REMARK  135  A    between atoms: _318  and  _319
REMARK  136  A    between atoms: _321  and  _323
REMARK  137  A    between atoms: _323  and  _324
REMARK  138  A    between atoms: _323  and  _326
REMARK  139  A    between atoms: _326  and  _327
REMARK  140  A    between atoms: _330  and  _332
REMARK  141  A    between atoms: _332  and  _333
REMARK  142  A    between atoms: _332  and  _335
REMARK  143  A    between atoms: _335  and  _336
REMARK  144  A    between atoms: _338  and  _340
REMARK  145  A    between atoms: _340  and  _341
REMARK  146  A    between atoms: _340  and  _343
REMARK  147  A    between atoms: _343  and  _344
REMARK  148  A    between atoms: _347  and  _349
REMARK  149  A    between atoms: _349  and  _350
REMARK  150  A    between atoms: _349  and  _352
REMARK  151  A    between atoms: _352  and  _353
REMARK  152  A    between atoms: _353  and  _354
REMARK  153  A    between atoms: _357  and  _359
REMARK  154  A    between atoms: _359  and  _360
REMARK  155  A    between atoms: _363  and  _364
REMARK  156  A    between atoms: _369  and  _371
REMARK  157  A    between atoms: _371  and  _372
REMARK  158  A    between atoms: _375  and  _377
REMARK  159  A    between atoms: _377  and  _378
REMARK  160  A    between atoms: _377  and  _380
REMARK  161  A    between atoms: _380  and  _381
REMARK  162  A    between atoms: _381  and  _382
REMARK  163  A    between atoms: _385  and  _387
REMARK  164  A    between atoms: _387  and  _388
REMARK  165  A    between atoms: _387  and  _390
REMARK  166  A    between atoms: _390  and  _391
REMARK  167  A    between atoms: _396  and  _398
REMARK  168  A    between atoms: _398  and  _399
REMARK  169  A    between atoms: _398  and  _401
REMARK  170  A    between atoms: _401  and  _402
REMARK  171  A    between atoms: _405  and  _407
REMARK  172  A    between atoms: _407  and  _408
REMARK  173  A    between atoms: _407  and  _410
REMARK  174  A    between atoms: _410  and  _411
REMARK  175  A    between atoms: _414  and  _416
REMARK  176  A    between atoms: _416  and  _417
REMARK  177  A    between atoms: _416  and  _419
REMARK  178  A    between atoms: _419  and  _420
REMARK  179  A    between atoms: _426  and  _428
REMARK  180  A    between atoms: _428  and  _429
REMARK  181  A    between atoms: _428  and  _431
REMARK  182  A    between atoms: _434  and  _436
REMARK  183  A    between atoms: _436  and  _437
REMARK  184  A    between atoms: _436  and  _439
REMARK  185  A    between atoms: _439  and  _440
REMARK  186  A    between atoms: _443  and  _445
REMARK  187  A    between atoms: _445  and  _446
REMARK  188  A    between atoms: _449  and  _451
REMARK  189  A    between atoms: _451  and  _452
REMARK  190  A    between atoms: _451  and  _454
REMARK  191  A    between atoms: _454  and  _455
REMARK  192  A    between atoms: _460  and  _462
REMARK  193  A    between atoms: _462  and  _463
REMARK  194  A    between atoms: _462  and  _465
REMARK  195  A    between atoms: _465  and  _466
REMARK  196  A    between atoms: _466  and  _467
REMARK  197  A    between atoms: _467  and  _468
REMARK  198  A    between atoms: _468  and  _469
REMARK  199  A    between atoms: _473  and  _475
REMARK  200  A    between atoms: _475  and  _476
REMARK  201  A    between atoms: _475  and  _478
REMARK  202  A    between atoms: _478  and  _479
REMARK  203  A    between atoms: _482  and  _484
REMARK  204  A    between atoms: _484  and  _485
REMARK  205  A    between atoms: _487  and  _489
REMARK  206  A    between atoms: _489  and  _490
REMARK  207  A    between atoms: _489  and  _492
REMARK  208  A    between atoms: _492  and  _493
REMARK  209  A    between atoms: _498  and  _499
REMARK  210  A    between atoms: _501  and  _503
REMARK  211  A    between atoms: _503  and  _504
REMARK  212  A    between atoms: _503  and  _506
REMARK  213  A    between atoms: _506  and  _507
REMARK  214  A    between atoms: _512  and  _513
REMARK  215  A    between atoms: _515  and  _517
REMARK  216  A    between atoms: _517  and  _518
REMARK  217  A    between atoms: _517  and  _520
REMARK  218  A    between atoms: _520  and  _521
REMARK  219  A    between atoms: _524  and  _526
REMARK  220  A    between atoms: _526  and  _527
REMARK  221  A    between atoms: _526  and  _529
REMARK  222  A    between atoms: _529  and  _530
REMARK  223  A    between atoms: _535  and  _537
REMARK  224  A    between atoms: _537  and  _538
REMARK  225  A    between atoms: _537  and  _540
REMARK  226  A    between atoms: _540  and  _541
REMARK  227  A    between atoms: _541  and  _542
REMARK  228  A    between atoms: _542  and  _543
REMARK  229  A    between atoms: _552  and  _554
REMARK  230  A    between atoms: _554  and  _555
REMARK  231  A    between atoms: _554  and  _557
REMARK  232  A    between atoms: _557  and  _558
REMARK  233  A    between atoms: _563  and  _564
REMARK  234  A    between atoms: _566  and  _568
REMARK  235  A    between atoms: _568  and  _569
REMARK  236  A    between atoms: _568  and  _571
REMARK  237  A    between atoms: _571  and  _572
REMARK                            x       y       z     vdW  Elec       q    Type
REMARK                         _______ _______ _______ _____ _____    ______ ____
ROOT
ATOM      1  C   TYR A   4      -1.329   2.157 -28.901  0.00  0.00    +0.241 C 
ATOM      2  N   SER A   5      -2.446   2.664 -28.468  0.00  0.00    -0.295 N 
ATOM      3  H   SER A   5      -2.503   3.040 -27.500  0.00  0.00    +0.150 HD
ATOM      4  O   TYR A   4      -1.231   1.686 -29.983  0.00  0.00    -0.273 OA
ENDROOT
BRANCH   2   5
ATOM      5  CA  SER A   5      -3.619   2.707 -29.335  0.00  0.00    +0.178 C 
BRANCH   5   6
ATOM      6  C   SER A   5      -3.504   3.817 -30.378  0.00  0.00    +0.246 C 
ATOM      7  O   SER A   5      -3.316   4.981 -30.030  0.00  0.00    -0.273 OA
ATOM      8  N   PRO A   6      -3.633   3.461 -31.665  0.00  0.00    -0.272 N 
ATOM      9  CD  PRO A   6      -3.696   2.095 -32.217  0.00  0.00    +0.094 C 
ATOM     10  CG  PRO A   6      -3.329   2.300 -33.659  0.00  0.00    +0.024 C 
ATOM     11  CB  PRO A   6      -3.810   3.684 -33.998  0.00  0.00    +0.031 C 
ATOM     12  CA  PRO A   6      -3.581   4.485 -32.717  0.00  0.00    +0.152 C 
BRANCH  12  13
ATOM     13  C   PRO A   6      -4.663   5.547 -32.540  0.00  0.00    +0.241 C 
ATOM     14  N   LYS A   7      -5.868   5.114 -32.183  0.00  0.00    -0.297 N 
ATOM     15  H   LYS A   7      -6.019   4.098 -32.021  0.00  0.00    +0.150 HD
ATOM     16  O   PRO A   6      -4.396   6.738 -32.718  0.00  0.00    -0.273 OA
BRANCH  14  17
ATOM     17  CA  LYS A   7      -6.978   6.036 -32.015  0.00  0.00    +0.149 C 
BRANCH  17  18
ATOM     18  C   LYS A   7      -6.680   7.038 -30.903  0.00  0.00    +0.241 C 
ATOM     19  N   MET A   8      -6.194   6.539 -29.776  0.00  0.00    -0.297 N 
ATOM     20  H   MET A   8      -5.944   5.531 -29.724  0.00  0.00    +0.150 HD
ATOM     21  O   LYS A   7      -6.891   8.239 -31.059  0.00  0.00    -0.273 OA
BRANCH  19  22
ATOM     22  CA  MET A   8      -6.007   7.390 -28.610  0.00  0.00    +0.149 C 
BRANCH  22  23
ATOM     23  C   MET A   8      -4.730   8.228 -28.720  0.00  0.00    +0.241 C 
ATOM     24  O   MET A   8      -4.643   9.306 -28.125  0.00  0.00    -0.273 OA
ATOM     25  N   ILE A   9      -3.751   7.742 -29.483  0.00  0.00    -0.298 N 
ATOM     26  H   ILE A   9      -3.816   6.769 -29.843  0.00  0.00    +0.150 HD
BRANCH  25  27
ATOM     27  CA  ILE A   9      -2.585   8.562 -29.820  0.00  0.00    +0.137 C 
BRANCH  27  28
ATOM     28  CB  ILE A   9      -1.557   7.781 -30.671  0.00  0.00    +0.026 C 
ATOM     29  CG2 ILE A   9      -0.542   8.733 -31.330  0.00  0.00    +0.002 C 
BRANCH  28  30
ATOM     30  CG1 ILE A   9      -0.816   6.761 -29.798  0.00  0.00    +0.002 C 
ATOM     31  CD1 ILE A   9      -0.126   5.649 -30.607  0.00  0.00    +0.000 C 
ENDBRANCH  28  30
ENDBRANCH  27  28
BRANCH  27  32
ATOM     32  C   ILE A   9      -3.045   9.817 -30.564  0.00  0.00    +0.227 C 
ATOM     33  O   ILE A   9      -2.666  10.946 -30.211  0.00  0.00    -0.286 OA
ENDBRANCH  27  32
ENDBRANCH  25  27
ENDBRANCH  22  23
BRANCH  22  34
ATOM     34  CB  MET A   8      -5.996   6.552 -27.342  0.00  0.00    +0.041 C 
BRANCH  34  35
ATOM     35  CG  MET A   8      -7.295   5.765 -27.130  0.00  0.00    +0.060 C 
BRANCH  35  36
ATOM     36  SD  MET A   8      -8.786   6.719 -27.470  0.00  0.00    -0.139 S 
ATOM     37  CE  MET A   8      -8.707   7.954 -26.167  0.00  0.00    +0.069 C 
ENDBRANCH  35  36
ENDBRANCH  34  35
ENDBRANCH  22  34
ENDBRANCH  19  22
ENDBRANCH  17  18
BRANCH  17  38
ATOM     38  CB  LYS A   7      -8.277   5.285 -31.701  0.00  0.00    +0.029 C 
BRANCH  38  39
ATOM     39  CG  LYS A   7      -9.508   6.196 -31.686  0.00  0.00    +0.000 C 
BRANCH  39  40
ATOM     40  CD  LYS A   7     -10.610   5.689 -30.767  0.00  0.00    -0.024 C 
BRANCH  40  41
ATOM     41  CE  LYS A   7     -11.099   4.317 -31.172  0.00  0.00    -0.086 C 
BRANCH  41  42
ATOM     42  NZ  LYS A   7     -11.948   3.664 -30.128  0.00  0.00    +0.380 N 
ATOM     43  HZ1 LYS A   7     -11.397   3.557 -29.252  0.00  0.00    -0.089 HD
ATOM     44  HZ2 LYS A   7     -12.784   4.255 -29.943  0.00  0.00    -0.089 HD
ATOM     45  HZ3 LYS A   7     -12.251   2.728 -30.465  0.00  0.00    -0.089 HD
ENDBRANCH  41  42
ENDBRANCH  40  41
ENDBRANCH  39  40
ENDBRANCH  38  39
ENDBRANCH  17  38
ENDBRANCH  14  17
ENDBRANCH  12  13
ENDBRANCH   5   6
BRANCH   5  46
ATOM     46  CB  SER A   5      -4.888   2.903 -28.526  0.00  0.00    +0.166 C 
BRANCH  46  47
ATOM     47  OG  SER A   5      -5.929   3.351 -29.369  0.00  0.00    -0.380 OA
ATOM     48  H   SER A   5      -5.669   4.211 -29.784  0.00  0.00    +0.211 HD
ENDBRANCH  46  47
ENDBRANCH   5  46
ENDBRANCH   2   5
BRANCH   1  49
ATOM     49  CA  TYR A   4      -0.155   2.127 -27.948  0.00  0.00    +0.153 C 
BRANCH  49  51
ATOM     50  C   GLU A   3       0.497   3.993 -26.615  0.00  0.00    +0.241 C 
ATOM     51  N   TYR A   4      -0.285   2.971 -26.786  0.00  0.00    -0.297 N 
ATOM     52  H   TYR A   4      -1.014   2.758 -26.076  0.00  0.00    +0.150 HD
ATOM     53  O   GLU A   3       1.380   4.304 -27.421  0.00  0.00    -0.273 OA
BRANCH  50  54
ATOM     54  CA  GLU A   3       0.295   4.825 -25.342  0.00  0.00    +0.149 C 
BRANCH  54  57
ATOM     55  C   LEU A   2       1.812   5.533 -23.556  0.00  0.00    +0.241 C 
ATOM     56  O   LEU A   2       0.942   5.411 -22.698  0.00  0.00    -0.273 OA
ATOM     57  N   GLU A   3       1.602   5.261 -24.843  0.00  0.00    -0.297 N 
ATOM     58  H   GLU A   3       2.390   5.361 -25.514  0.00  0.00    +0.150 HD
BRANCH  55  59
ATOM     59  CA  LEU A   2       3.224   5.994 -23.174  0.00  0.00    +0.149 C 
BRANCH  59  61
ATOM     60  C   THR A   1       3.393   8.389 -22.690  0.00  0.00    +0.241 C 
ATOM     61  N   LEU A   2       3.209   7.137 -22.269  0.00  0.00    -0.297 N 
ATOM     62  H   LEU A   2       3.048   6.969 -21.255  0.00  0.00    +0.150 HD
ATOM     63  O   THR A   1       3.527   8.685 -23.880  0.00  0.00    -0.274 OA
BRANCH  60  64
ATOM     64  CA  THR A   1       3.449   9.456 -21.594  0.00  0.00    +0.172 C 
BRANCH  64  65
ATOM     65  N   THR A   1       4.635  10.308 -21.725  0.00  0.00    -0.236 NA
ATOM     66  H   THR A   1       4.864  10.736 -22.645  0.00  0.00    +0.142 HD
ENDBRANCH  64  65
BRANCH  64  67
ATOM     67  CB  THR A   1       2.140  10.301 -21.592  0.00  0.00    +0.135 C 
ATOM     68  CG2 THR A   1       2.003  11.151 -22.871  0.00  0.00    +0.034 C 
BRANCH  67  69
ATOM     69  OG1 THR A   1       1.006   9.437 -21.449  0.00  0.00    -0.383 OA
ATOM     70  HG1 THR A   1       0.178   9.979 -21.448  0.00  0.00    +0.210 HD
ENDBRANCH  67  69
ENDBRANCH  64  67
ENDBRANCH  60  64
ENDBRANCH  59  61
BRANCH  59  71
ATOM     71  CB  LEU A   2       3.980   4.826 -22.538  0.00  0.00    +0.029 C 
BRANCH  71  72
ATOM     72  CG  LEU A   2       5.382   5.138 -22.013  0.00  0.00    +0.002 C 
ATOM     73  CD2 LEU A   2       6.073   3.871 -21.565  0.00  0.00    +0.000 C 
ATOM     74  CD1 LEU A   2       6.202   5.823 -23.075  0.00  0.00    +0.000 C 
ENDBRANCH  71  72
ENDBRANCH  59  71
ENDBRANCH  55  59
ENDBRANCH  54  57
BRANCH  54  75
ATOM     75  CB  GLU A   3      -0.600   6.049 -25.603  0.00  0.00    +0.041 C 
BRANCH  75  76
ATOM     76  CG  GLU A   3      -1.966   5.727 -26.214  0.00  0.00    +0.116 C 
BRANCH  76  77
ATOM     77  CD  GLU A   3      -2.792   4.829 -25.330  0.00  0.00    +0.365 C 
ATOM     78  OE2 GLU A   3      -2.981   5.188 -24.144  0.00  0.00    -0.246 OA
ATOM     79  OE1 GLU A   3      -3.231   3.755 -25.818  0.00  0.00    -0.246 OA
ENDBRANCH  76  77
ENDBRANCH  75  76
ENDBRANCH  54  75
ENDBRANCH  50  54
ENDBRANCH  49  51
BRANCH  49  80
ATOM     80  CB  TYR A   4       0.180   0.703 -27.547  0.00  0.00    +0.055 C 
BRANCH  80  81
ATOM     81  CG  TYR A   4      -0.947  -0.191 -27.098  0.00  0.00    -0.020 A 
ATOM     82  CD2 TYR A   4      -2.094   0.275 -26.442  0.00  0.00    -0.001 A 
ATOM     83  CE2 TYR A   4      -3.095  -0.596 -26.023  0.00  0.00    +0.036 A 
ATOM     84  CZ  TYR A   4      -2.949  -1.942 -26.232  0.00  0.00    +0.134 A 
ATOM     85  CE1 TYR A   4      -1.822  -2.400 -26.863  0.00  0.00    +0.036 A 
ATOM     86  CD1 TYR A   4      -0.849  -1.529 -27.289  0.00  0.00    -0.001 A 
BRANCH  84  87
ATOM     87  OH  TYR A   4      -3.899  -2.859 -25.847  0.00  0.00    -0.506 OA
ATOM     88  HH  TYR A   4      -4.030  -2.805 -24.867  0.00  0.00    +0.292 HD
ENDBRANCH  84  87
ENDBRANCH  80  81
ENDBRANCH  49  80
ENDBRANCH   1  49
TORSDOF 39
REMARK  Name = ../refined-set-2016/4ymg/4ymg_pocket.pdb
REMARK  237 active torsions:
REMARK  status: ('A' for Active; 'I' for Inactive)
REMARK    1  A    between atoms: _1  and  _3
REMARK    2  A    between atoms: _3  and  _4
REMARK    3  A    between atoms: _3  and  _6
REMARK    4  A    between atoms: _6  and  _7
REMARK    5  A    between atoms: _12  and  _14
REMARK    6  A    between atoms: _14  and  _15
REMARK    7  A    between atoms: _14  and  _17
REMARK    8  A    between atoms: _17  and  _18
REMARK    9  A    between atoms: _28  and  _30
REMARK   10  A    between atoms: _30  and  _31
REMARK   11  A    between atoms: _30  and  _33
REMARK   12  A    between atoms: _33  and  _34
REMARK   13  A    between atoms: _37  and  _39
REMARK   14  A    between atoms: _39  and  _40
REMARK   15  A    between atoms: _39  and  _42
REMARK   16  A    between atoms: _42  and  _43
REMARK   17  A    between atoms: _46  and  _48
REMARK   18  A    between atoms: _48  and  _49
REMARK   19  A    between atoms: _52  and  _54
REMARK   20  A    between atoms: _54  and  _55
REMARK   21  A    between atoms: _54  and  _57
REMARK   22  A    between atoms: _57  and  _58
REMARK   23  A    between atoms: _61  and  _63
REMARK   24  A    between atoms: _63  and  _64
REMARK   25  A    between atoms: _63  and  _66
REMARK   26  A    between atoms: _66  and  _67
REMARK   27  A    between atoms: _67  and  _68
REMARK   28  A    between atoms: _68  and  _69
REMARK   29  A    between atoms: _69  and  _70
REMARK   30  A    between atoms: _74  and  _76
REMARK   31  A    between atoms: _76  and  _77
REMARK   32  A    between atoms: _76  and  _79
REMARK   33  A    between atoms: _79  and  _80
REMARK   34  A    between atoms: _80  and  _81
REMARK   35  A    between atoms: _83  and  _85
REMARK   36  A    between atoms: _85  and  _86
REMARK   37  A    between atoms: _85  and  _88
REMARK   38  A    between atoms: _88  and  _89
REMARK   39  A    between atoms: _91  and  _93
REMARK   40  A    between atoms: _93  and  _94
REMARK   41  A    between atoms: _93  and  _96
REMARK   42  A    between atoms: _96  and  _97
REMARK   43  A    between atoms: _99  and  _101
REMARK   44  A    between atoms: _101  and  _102
REMARK   45  A    between atoms: _101  and  _104
REMARK   46  A    between atoms: _104  and  _105
REMARK   47  A    between atoms: _105  and  _106
REMARK   48  A    between atoms: _111  and  _113
REMARK   49  A    between atoms: _113  and  _114
REMARK   50  A    between atoms: _116  and  _118
REMARK   51  A    between atoms: _118  and  _119
REMARK   52  A    between atoms: _118  and  _121
REMARK   53  A    between atoms: _121  and  _122
REMARK   54  A    between atoms: _122  and  _123
REMARK   55  A    between atoms: _125  and  _127
REMARK   56  A    between atoms: _127  and  _128
REMARK   57  A    between atoms: _127  and  _130
REMARK   58  A    between atoms: _130  and  _131
REMARK   59  A    between atoms: _131  and  _132
REMARK   60  A    between atoms: _135  and  _137
REMARK   61  A    between atoms: _137  and  _138
REMARK   62  A    between atoms: _137  and  _140
REMARK   63  A    between atoms: _140  and  _141
REMARK   64  A    between atoms: _144  and  _146
REMARK   65  A    between atoms: _146  and  _147
REMARK   66  A    between atoms: _149  and  _151
REMARK   67  A    between atoms: _151  and  _152
REMARK   68  A    between atoms: _151  and  _154
REMARK   69  A    between atoms: _156  and  _158
REMARK   70  A    between atoms: _158  and  _159
REMARK   71  A    between atoms: _158  and  _161
REMARK   72  A    between atoms: _161  and  _162
REMARK   73  A    between atoms: _167  and  _168
REMARK   74  A    between atoms: _170  and  _172
REMARK   75  A    between atoms: _172  and  _173
REMARK   76  A    between atoms: _172  and  _175
REMARK   77  A    between atoms: _175  and  _176
REMARK   78  A    between atoms: _178  and  _180
REMARK   79  A    between atoms: _180  and  _181
REMARK   80  A    between atoms: _183  and  _185
REMARK   81  A    between atoms: _185  and  _186
REMARK   82  A    between atoms: _185  and  _188
REMARK   83  A    between atoms: _188  and  _189
REMARK   84  A    between atoms: _194  and  _195
REMARK   85  A    between atoms: _197  and  _199
REMARK   86  A    between atoms: _199  and  _200
REMARK   87  A    between atoms: _199  and  _202
REMARK   88  A    between atoms: _202  and  _203
REMARK   89  A    between atoms: _205  and  _207
REMARK   90  A    between atoms: _207  and  _208
REMARK   91  A    between atoms: _211  and  _213
REMARK   92  A    between atoms: _213  and  _214
REMARK   93  A    between atoms: _213  and  _216
REMARK   94  A    between atoms: _216  and  _217
REMARK   95  A    between atoms: _220  and  _222
REMARK   96  A    between atoms: _222  and  _223
REMARK   97  A    between atoms: _226  and  _228
REMARK   98  A    between atoms: _228  and  _229
REMARK   99  A    between atoms: _228  and  _231
REMARK  100  A    between atoms: _231  and  _232
REMARK  101  A    between atoms: _242  and  _244
REMARK  102  A    between atoms: _244  and  _245
REMARK  103  A    between atoms: _244  and  _247
REMARK  104  A    between atoms: _247  and  _248
REMARK  105  A    between atoms: _251  and  _253
REMARK  106  A    between atoms: _253  and  _254
REMARK  107  A    between atoms: _253  and  _256
REMARK  108  A    between atoms: _256  and  _257
REMARK  109  A    between atoms: _260  and  _262
REMARK  110  A    between atoms: _262  and  _263
REMARK  111  A    between atoms: _262  and  _265
REMARK  112  A    between atoms: _265  and  _266
REMARK  113  A    between atoms: _266  and  _267
REMARK  114  A    between atoms: _270  and  _272
REMARK  115  A    between atoms: _272  and  _273
REMARK  116  A    between atoms: _272  and  _275
REMARK  117  A    between atoms: _275  and  _276
REMARK  118  A    between atoms: _281  and  _282
REMARK  119  A    between atoms: _284  and  _286
REMARK  120  A    between atoms: _286  and  _287
REMARK  121  A    between atoms: _286  and  _289
REMARK  122  A    between atoms: _289  and  _290
REMARK  123  A    between atoms: _293  and  _294
REMARK  124  A    between atoms: _299  and  _301
REMARK  125  A    between atoms: _301  and  _302
REMARK  126  A    between atoms: _301  and  _304
REMARK  127  A    between atoms: _304  and  _305
REMARK  128  A    between atoms: _305  and  _306
REMARK  129  A    between atoms: _306  and  _307
REMARK  130  A    between atoms: _307  and  _308
REMARK  131  A    between atoms: _312  and  _314
REMARK  132  A    between atoms: _314  and  _315
REMARK  133  A    between atoms: _314  and  _317
REMARK  134  A    between atoms: _317  and  _318
REMARK  135  A    between atoms: _318  and  _319
REMARK  136  A    between atoms: _321  and  _323
REMARK  137  A    between atoms: _323  and  _324
REMARK  138  A    between atoms: _323  and  _326
REMARK  139  A    between atoms: _326  and  _327
REMARK  140  A    between atoms: _330  and  _332
REMARK  141  A    between atoms: _332  and  _333
REMARK  142  A    between atoms: _332  and  _335
REMARK  143  A    between atoms: _335  and  _336
REMARK  144  A    between atoms: _338  and  _340
REMARK  145  A    between atoms: _340  and  _341
REMARK  146  A    between atoms: _340  and  _343
REMARK  147  A    between atoms: _343  and  _344
REMARK  148  A    between atoms: _347  and  _349
REMARK  149  A    between atoms: _349  and  _350
REMARK  150  A    between atoms: _349  and  _352
REMARK  151  A    between atoms: _352  and  _353
REMARK  152  A    between atoms: _353  and  _354
REMARK  153  A    between atoms: _357  and  _359
REMARK  154  A    between atoms: _359  and  _360
REMARK  155  A    between atoms: _363  and  _364
REMARK  156  A    between atoms: _369  and  _371
REMARK  157  A    between atoms: _371  and  _372
REMARK  158  A    between atoms: _375  and  _377
REMARK  159  A    between atoms: _377  and  _378
REMARK  160  A    between atoms: _377  and  _380
REMARK  161  A    between atoms: _380  and  _381
REMARK  162  A    between atoms: _381  and  _382
REMARK  163  A    between atoms: _385  and  _387
REMARK  164  A    between atoms: _387  and  _388
REMARK  165  A    between atoms: _387  and  _390
REMARK  166  A    between atoms: _390  and  _391
REMARK  167  A    between atoms: _396  and  _398
REMARK  168  A    between atoms: _398  and  _399
REMARK  169  A    between atoms: _398  and  _401
REMARK  170  A    between atoms: _401  and  _402
REMARK  171  A    between atoms: _405  and  _407
REMARK  172  A    between atoms: _407  and  _408
REMARK  173  A    between atoms: _407  and  _410
REMARK  174  A    between atoms: _410  and  _411
REMARK  175  A    between atoms: _414  and  _416
REMARK  176  A    between atoms: _416  and  _417
REMARK  177  A    between atoms: _416  and  _419
REMARK  178  A    between atoms: _419  and  _420
REMARK  179  A    between atoms: _426  and  _428
REMARK  180  A    between atoms: _428  and  _429
REMARK  181  A    between atoms: _428  and  _431
REMARK  182  A    between atoms: _434  and  _436
REMARK  183  A    between atoms: _436  and  _437
REMARK  184  A    between atoms: _436  and  _439
REMARK  185  A    between atoms: _439  and  _440
REMARK  186  A    between atoms: _443  and  _445
REMARK  187  A    between atoms: _445  and  _446
REMARK  188  A    between atoms: _449  and  _451
REMARK  189  A    between atoms: _451  and  _452
REMARK  190  A    between atoms: _451  and  _454
REMARK  191  A    between atoms: _454  and  _455
REMARK  192  A    between atoms: _460  and  _462
REMARK  193  A    between atoms: _462  and  _463
REMARK  194  A    between atoms: _462  and  _465
REMARK  195  A    between atoms: _465  and  _466
REMARK  196  A    between atoms: _466  and  _467
REMARK  197  A    between atoms: _467  and  _468
REMARK  198  A    between atoms: _468  and  _469
REMARK  199  A    between atoms: _473  and  _475
REMARK  200  A    between atoms: _475  and  _476
REMARK  201  A    between atoms: _475  and  _478
REMARK  202  A    between atoms: _478  and  _479
REMARK  203  A    between atoms: _482  and  _484
REMARK  204  A    between atoms: _484  and  _485
REMARK  205  A    between atoms: _487  and  _489
REMARK  206  A    between atoms: _489  and  _490
REMARK  207  A    between atoms: _489  and  _492
REMARK  208  A    between atoms: _492  and  _493
REMARK  209  A    between atoms: _498  and  _499
REMARK  210  A    between atoms: _501  and  _503
REMARK  211  A    between atoms: _503  and  _504
REMARK  212  A    between atoms: _503  and  _506
REMARK  213  A    between atoms: _506  and  _507
REMARK  214  A    between atoms: _512  and  _513
REMARK  215  A    between atoms: _515  and  _517
REMARK  216  A    between atoms: _517  and  _518
REMARK  217  A    between atoms: _517  and  _520
REMARK  218  A    between atoms: _520  and  _521
REMARK  219  A    between atoms: _524  and  _526
REMARK  220  A    between atoms: _526  and  _527
REMARK  221  A    between atoms: _526  and  _529
REMARK  222  A    between atoms: _529  and  _530
REMARK  223  A    between atoms: _535  and  _537
REMARK  224  A    between atoms: _537  and  _538
REMARK  225  A    between atoms: _537  and  _540
REMARK  226  A    between atoms: _540  and  _541
REMARK  227  A    between atoms: _541  and  _542
REMARK  228  A    between atoms: _542  and  _543
REMARK  229  A    between atoms: _552  and  _554
REMARK  230  A    between atoms: _554  and  _555
REMARK  231  A    between atoms: _554  and  _557
REMARK  232  A    between atoms: _557  and  _558
REMARK  233  A    between atoms: _563  and  _564
REMARK  234  A    between atoms: _566  and  _568
REMARK  235  A    between atoms: _568  and  _569
REMARK  236  A    between atoms: _568  and  _571
REMARK  237  A    between atoms: _571  and  _572
REMARK                            x       y       z     vdW  Elec       q    Type
REMARK                         _______ _______ _______ _____ _____    ______ ____
ROOT
ATOM      1  CA  SER A   1      -4.237  12.742 -27.282  0.00  0.00    +0.163 C 
ENDROOT
BRANCH   1   2
ATOM      2  N   SER A   1      -5.099  12.080 -28.249  0.00  0.00    -0.237 NA
ATOM      3  H   SER A   1      -4.880  11.104 -28.534  0.00  0.00    +0.142 HD
ENDBRANCH   1   2
BRANCH   1   4
ATOM      4  CB  SER A   1      -3.427  13.873 -27.930  0.00  0.00    +0.227 C 
ATOM      5  OG  SER A   1      -3.249  14.932 -27.323  0.00  0.00    -0.287 OA
ENDBRANCH   1   4
BRANCH   1   6
ATOM      6  C   SER A   1      -3.296  11.731 -26.613  0.00  0.00    +0.162 C 
BRANCH   6   7
ATOM      7  O   SER A   1      -3.988  10.882 -25.697  0.00  0.00    -0.380 OA
ATOM      8  H   SER A   1      -4.690  10.379 -26.181  0.00  0.00    +0.211 HD
ENDBRANCH   6   7
ENDBRANCH   1   6
TORSDOF 4
REMARK  Name = ../refined-set-2016/4ymg/4ymg_pocket.pdb
REMARK  237 active torsions:
REMARK  status: ('A' for Active; 'I' for Inactive)
REMARK    1  A    between atoms: _1  and  _3
REMARK    2  A    between atoms: _3  and  _4
REMARK    3  A    between atoms: _3  and  _6
REMARK    4  A    between atoms: _6  and  _7
REMARK    5  A    between atoms: _12  and  _14
REMARK    6  A    between atoms: _14  and  _15
REMARK    7  A    between atoms: _14  and  _17
REMARK    8  A    between atoms: _17  and  _18
REMARK    9  A    between atoms: _28  and  _30
REMARK   10  A    between atoms: _30  and  _31
REMARK   11  A    between atoms: _30  and  _33
REMARK   12  A    between atoms: _33  and  _34
REMARK   13  A    between atoms: _37  and  _39
REMARK   14  A    between atoms: _39  and  _40
REMARK   15  A    between atoms: _39  and  _42
REMARK   16  A    between atoms: _42  and  _43
REMARK   17  A    between atoms: _46  and  _48
REMARK   18  A    between atoms: _48  and  _49
REMARK   19  A    between atoms: _52  and  _54
REMARK   20  A    between atoms: _54  and  _55
REMARK   21  A    between atoms: _54  and  _57
REMARK   22  A    between atoms: _57  and  _58
REMARK   23  A    between atoms: _61  and  _63
REMARK   24  A    between atoms: _63  and  _64
REMARK   25  A    between atoms: _63  and  _66
REMARK   26  A    between atoms: _66  and  _67
REMARK   27  A    between atoms: _67  and  _68
REMARK   28  A    between atoms: _68  and  _69
REMARK   29  A    between atoms: _69  and  _70
REMARK   30  A    between atoms: _74  and  _76
REMARK   31  A    between atoms: _76  and  _77
REMARK   32  A    between atoms: _76  and  _79
REMARK   33  A    between atoms: _79  and  _80
REMARK   34  A    between atoms: _80  and  _81
REMARK   35  A    between atoms: _83  and  _85
REMARK   36  A    between atoms: _85  and  _86
REMARK   37  A    between atoms: _85  and  _88
REMARK   38  A    between atoms: _88  and  _89
REMARK   39  A    between atoms: _91  and  _93
REMARK   40  A    between atoms: _93  and  _94
REMARK   41  A    between atoms: _93  and  _96
REMARK   42  A    between atoms: _96  and  _97
REMARK   43  A    between atoms: _99  and  _101
REMARK   44  A    between atoms: _101  and  _102
REMARK   45  A    between atoms: _101  and  _104
REMARK   46  A    between atoms: _104  and  _105
REMARK   47  A    between atoms: _105  and  _106
REMARK   48  A    between atoms: _111  and  _113
REMARK   49  A    between atoms: _113  and  _114
REMARK   50  A    between atoms: _116  and  _118
REMARK   51  A    between atoms: _118  and  _119
REMARK   52  A    between atoms: _118  and  _121
REMARK   53  A    between atoms: _121  and  _122
REMARK   54  A    between atoms: _122  and  _123
REMARK   55  A    between atoms: _125  and  _127
REMARK   56  A    between atoms: _127  and  _128
REMARK   57  A    between atoms: _127  and  _130
REMARK   58  A    between atoms: _130  and  _131
REMARK   59  A    between atoms: _131  and  _132
REMARK   60  A    between atoms: _135  and  _137
REMARK   61  A    between atoms: _137  and  _138
REMARK   62  A    between atoms: _137  and  _140
REMARK   63  A    between atoms: _140  and  _141
REMARK   64  A    between atoms: _144  and  _146
REMARK   65  A    between atoms: _146  and  _147
REMARK   66  A    between atoms: _149  and  _151
REMARK   67  A    between atoms: _151  and  _152
REMARK   68  A    between atoms: _151  and  _154
REMARK   69  A    between atoms: _156  and  _158
REMARK   70  A    between atoms: _158  and  _159
REMARK   71  A    between atoms: _158  and  _161
REMARK   72  A    between atoms: _161  and  _162
REMARK   73  A    between atoms: _167  and  _168
REMARK   74  A    between atoms: _170  and  _172
REMARK   75  A    between atoms: _172  and  _173
REMARK   76  A    between atoms: _172  and  _175
REMARK   77  A    between atoms: _175  and  _176
REMARK   78  A    between atoms: _178  and  _180
REMARK   79  A    between atoms: _180  and  _181
REMARK   80  A    between atoms: _183  and  _185
REMARK   81  A    between atoms: _185  and  _186
REMARK   82  A    between atoms: _185  and  _188
REMARK   83  A    between atoms: _188  and  _189
REMARK   84  A    between atoms: _194  and  _195
REMARK   85  A    between atoms: _197  and  _199
REMARK   86  A    between atoms: _199  and  _200
REMARK   87  A    between atoms: _199  and  _202
REMARK   88  A    between atoms: _202  and  _203
REMARK   89  A    between atoms: _205  and  _207
REMARK   90  A    between atoms: _207  and  _208
REMARK   91  A    between atoms: _211  and  _213
REMARK   92  A    between atoms: _213  and  _214
REMARK   93  A    between atoms: _213  and  _216
REMARK   94  A    between atoms: _216  and  _217
REMARK   95  A    between atoms: _220  and  _222
REMARK   96  A    between atoms: _222  and  _223
REMARK   97  A    between atoms: _226  and  _228
REMARK   98  A    between atoms: _228  and  _229
REMARK   99  A    between atoms: _228  and  _231
REMARK  100  A    between atoms: _231  and  _232
REMARK  101  A    between atoms: _242  and  _244
REMARK  102  A    between atoms: _244  and  _245
REMARK  103  A    between atoms: _244  and  _247
REMARK  104  A    between atoms: _247  and  _248
REMARK  105  A    between atoms: _251  and  _253
REMARK  106  A    between atoms: _253  and  _254
REMARK  107  A    between atoms: _253  and  _256
REMARK  108  A    between atoms: _256  and  _257
REMARK  109  A    between atoms: _260  and  _262
REMARK  110  A    between atoms: _262  and  _263
REMARK  111  A    between atoms: _262  and  _265
REMARK  112  A    between atoms: _265  and  _266
REMARK  113  A    between atoms: _266  and  _267
REMARK  114  A    between atoms: _270  and  _272
REMARK  115  A    between atoms: _272  and  _273
REMARK  116  A    between atoms: _272  and  _275
REMARK  117  A    between atoms: _275  and  _276
REMARK  118  A    between atoms: _281  and  _282
REMARK  119  A    between atoms: _284  and  _286
REMARK  120  A    between atoms: _286  and  _287
REMARK  121  A    between atoms: _286  and  _289
REMARK  122  A    between atoms: _289  and  _290
REMARK  123  A    between atoms: _293  and  _294
REMARK  124  A    between atoms: _299  and  _301
REMARK  125  A    between atoms: _301  and  _302
REMARK  126  A    between atoms: _301  and  _304
REMARK  127  A    between atoms: _304  and  _305
REMARK  128  A    between atoms: _305  and  _306
REMARK  129  A    between atoms: _306  and  _307
REMARK  130  A    between atoms: _307  and  _308
REMARK  131  A    between atoms: _312  and  _314
REMARK  132  A    between atoms: _314  and  _315
REMARK  133  A    between atoms: _314  and  _317
REMARK  134  A    between atoms: _317  and  _318
REMARK  135  A    between atoms: _318  and  _319
REMARK  136  A    between atoms: _321  and  _323
REMARK  137  A    between atoms: _323  and  _324
REMARK  138  A    between atoms: _323  and  _326
REMARK  139  A    between atoms: _326  and  _327
REMARK  140  A    between atoms: _330  and  _332
REMARK  141  A    between atoms: _332  and  _333
REMARK  142  A    between atoms: _332  and  _335
REMARK  143  A    between atoms: _335  and  _336
REMARK  144  A    between atoms: _338  and  _340
REMARK  145  A    between atoms: _340  and  _341
REMARK  146  A    between atoms: _340  and  _343
REMARK  147  A    between atoms: _343  and  _344
REMARK  148  A    between atoms: _347  and  _349
REMARK  149  A    between atoms: _349  and  _350
REMARK  150  A    between atoms: _349  and  _352
REMARK  151  A    between atoms: _352  and  _353
REMARK  152  A    between atoms: _353  and  _354
REMARK  153  A    between atoms: _357  and  _359
REMARK  154  A    between atoms: _359  and  _360
REMARK  155  A    between atoms: _363  and  _364
REMARK  156  A    between atoms: _369  and  _371
REMARK  157  A    between atoms: _371  and  _372
REMARK  158  A    between atoms: _375  and  _377
REMARK  159  A    between atoms: _377  and  _378
REMARK  160  A    between atoms: _377  and  _380
REMARK  161  A    between atoms: _380  and  _381
REMARK  162  A    between atoms: _381  and  _382
REMARK  163  A    between atoms: _385  and  _387
REMARK  164  A    between atoms: _387  and  _388
REMARK  165  A    between atoms: _387  and  _390
REMARK  166  A    between atoms: _390  and  _391
REMARK  167  A    between atoms: _396  and  _398
REMARK  168  A    between atoms: _398  and  _399
REMARK  169  A    between atoms: _398  and  _401
REMARK  170  A    between atoms: _401  and  _402
REMARK  171  A    between atoms: _405  and  _407
REMARK  172  A    between atoms: _407  and  _408
REMARK  173  A    between atoms: _407  and  _410
REMARK  174  A    between atoms: _410  and  _411
REMARK  175  A    between atoms: _414  and  _416
REMARK  176  A    between atoms: _416  and  _417
REMARK  177  A    between atoms: _416  and  _419
REMARK  178  A    between atoms: _419  and  _420
REMARK  179  A    between atoms: _426  and  _428
REMARK  180  A    between atoms: _428  and  _429
REMARK  181  A    between atoms: _428  and  _431
REMARK  182  A    between atoms: _434  and  _436
REMARK  183  A    between atoms: _436  and  _437
REMARK  184  A    between atoms: _436  and  _439
REMARK  185  A    between atoms: _439  and  _440
REMARK  186  A    between atoms: _443  and  _445
REMARK  187  A    between atoms: _445  and  _446
REMARK  188  A    between atoms: _449  and  _451
REMARK  189  A    between atoms: _451  and  _452
REMARK  190  A    between atoms: _451  and  _454
REMARK  191  A    between atoms: _454  and  _455
REMARK  192  A    between atoms: _460  and  _462
REMARK  193  A    between atoms: _462  and  _463
REMARK  194  A    between atoms: _462  and  _465
REMARK  195  A    between atoms: _465  and  _466
REMARK  196  A    between atoms: _466  and  _467
REMARK  197  A    between atoms: _467  and  _468
REMARK  198  A    between atoms: _468  and  _469
REMARK  199  A    between atoms: _473  and  _475
REMARK  200  A    between atoms: _475  and  _476
REMARK  201  A    between atoms: _475  and  _478
REMARK  202  A    between atoms: _478  and  _479
REMARK  203  A    between atoms: _482  and  _484
REMARK  204  A    between atoms: _484  and  _485
REMARK  205  A    between atoms: _487  and  _489
REMARK  206  A    between atoms: _489  and  _490
REMARK  207  A    between atoms: _489  and  _492
REMARK  208  A    between atoms: _492  and  _493
REMARK  209  A    between atoms: _498  and  _499
REMARK  210  A    between atoms: _501  and  _503
REMARK  211  A    between atoms: _503  and  _504
REMARK  212  A    between atoms: _503  and  _506
REMARK  213  A    between atoms: _506  and  _507
REMARK  214  A    between atoms: _512  and  _513
REMARK  215  A    between atoms: _515  and  _517
REMARK  216  A    between atoms: _517  and  _518
REMARK  217  A    between atoms: _517  and  _520
REMARK  218  A    between atoms: _520  and  _521
REMARK  219  A    between atoms: _524  and  _526
REMARK  220  A    between atoms: _526  and  _527
REMARK  221  A    between atoms: _526  and  _529
REMARK  222  A    between atoms: _529  and  _530
REMARK  223  A    between atoms: _535  and  _537
REMARK  224  A    between atoms: _537  and  _538
REMARK  225  A    between atoms: _537  and  _540
REMARK  226  A    between atoms: _540  and  _541
REMARK  227  A    between atoms: _541  and  _542
REMARK  228  A    between atoms: _542  and  _543
REMARK  229  A    between atoms: _552  and  _554
REMARK  230  A    between atoms: _554  and  _555
REMARK  231  A    between atoms: _554  and  _557
REMARK  232  A    between atoms: _557  and  _558
REMARK  233  A    between atoms: _563  and  _564
REMARK  234  A    between atoms: _566  and  _568
REMARK  235  A    between atoms: _568  and  _569
REMARK  236  A    between atoms: _568  and  _571
REMARK  237  A    between atoms: _571  and  _572
REMARK                            x       y       z     vdW  Elec       q    Type
REMARK                         _______ _______ _______ _____ _____    ______ ____
ROOT
ATOM      1  C   ALA A   5       5.988  -1.014 -23.069  0.00  0.00    +0.241 C 
ATOM      2  O   ALA A   5       7.064  -0.662 -22.615  0.00  0.00    -0.273 OA
ATOM      3  N   GLU A   6       5.679  -2.292 -23.265  0.00  0.00    -0.297 N 
ATOM      4  H   GLU A   6       4.728  -2.548 -23.600  0.00  0.00    +0.150 HD
ENDROOT
BRANCH   1   5
ATOM      5  CA  ALA A   5       4.926   0.027 -23.427  0.00  0.00    +0.149 C 
ATOM      6  CB  ALA A   5       4.117   0.390 -22.194  0.00  0.00    +0.031 C 
BRANCH   5   8
ATOM      7  C   PRO A   4       4.488  -0.655 -25.723  0.00  0.00    +0.241 C 
ATOM      8  N   ALA A   5       4.041  -0.424 -24.496  0.00  0.00    -0.297 N 
ATOM      9  H   ALA A   5       3.032  -0.568 -24.290  0.00  0.00    +0.150 HD
ATOM     10  O   PRO A   4       5.672  -0.572 -26.031  0.00  0.00    -0.273 OA
BRANCH   7  14
ATOM     11  C   GLY A   3       3.570   1.143 -27.888  0.00  0.00    +0.246 C 
ATOM     12  O   GLY A   3       3.250   1.709 -26.847  0.00  0.00    -0.273 OA
ATOM     13  N   PRO A   4       3.660  -0.190 -27.982  0.00  0.00    -0.272 N 
ATOM     14  CA  PRO A   4       3.449  -1.006 -26.786  0.00  0.00    +0.152 C 
ATOM     15  CB  PRO A   4       3.623  -2.441 -27.300  0.00  0.00    +0.031 C 
ATOM     16  CG  PRO A   4       3.388  -2.350 -28.779  0.00  0.00    +0.024 C 
ATOM     17  CD  PRO A   4       3.927  -1.009 -29.175  0.00  0.00    +0.094 C 
BRANCH  11  18
ATOM     18  CA  GLY A   3       3.862   1.941 -29.144  0.00  0.00    +0.176 C 
BRANCH  18  20
ATOM     19  C   GLU A   2       4.342   4.306 -29.401  0.00  0.00    +0.241 C 
ATOM     20  N   GLY A   3       3.497   3.343 -29.042  0.00  0.00    -0.295 N 
ATOM     21  H   GLY A   3       2.556   3.599 -28.681  0.00  0.00    +0.150 HD
ATOM     22  O   GLU A   2       5.491   4.083 -29.774  0.00  0.00    -0.273 OA
BRANCH  19  23
ATOM     23  CA  GLU A   2       3.821   5.734 -29.327  0.00  0.00    +0.149 C 
BRANCH  23  26
ATOM     24  C   ILE A   1       4.827   6.924 -27.443  0.00  0.00    +0.238 C 
ATOM     25  O   ILE A   1       4.160   6.316 -26.604  0.00  0.00    -0.274 OA
ATOM     26  N   GLU A   2       4.806   6.647 -28.744  0.00  0.00    -0.297 N 
ATOM     27  H   GLU A   2       5.511   7.092 -29.366  0.00  0.00    +0.150 HD
BRANCH  24  28
ATOM     28  CA  ILE A   1       5.738   8.063 -27.031  0.00  0.00    +0.145 C 
BRANCH  28  29
ATOM     29  N   ILE A   1       4.955   9.074 -26.328  0.00  0.00    -0.238 NA
ATOM     30  H   ILE A   1       4.663   8.908 -25.344  0.00  0.00    +0.142 HD
ENDBRANCH  28  29
BRANCH  28  31
ATOM     31  CB  ILE A   1       6.893   7.536 -26.178  0.00  0.00    +0.025 C 
ATOM     32  CG2 ILE A   1       7.673   6.447 -26.940  0.00  0.00    +0.002 C 
BRANCH  31  33
ATOM     33  CG1 ILE A   1       7.804   8.698 -25.786  0.00  0.00    +0.002 C 
ATOM     34  CD1 ILE A   1       9.062   8.272 -25.117  0.00  0.00    +0.000 C 
ENDBRANCH  31  33
ENDBRANCH  28  31
ENDBRANCH  24  28
ENDBRANCH  23  26
BRANCH  23  35
ATOM     35  CB  GLU A   2       3.423   6.224 -30.723  0.00  0.00    +0.041 C 
BRANCH  35  36
ATOM     36  CG  GLU A   2       3.040   7.718 -30.762  0.00  0.00    +0.116 C 
BRANCH  36  37
ATOM     37  CD  GLU A   2       2.859   8.252 -32.181  0.00  0.00    +0.365 C 
ATOM     38  OE2 GLU A   2       2.776   9.490 -32.355  0.00  0.00    -0.246 OA
ATOM     39  OE1 GLU A   2       2.806   7.431 -33.120  0.00  0.00    -0.246 OA
ENDBRANCH  36  37
ENDBRANCH  35  36
ENDBRANCH  23  35
ENDBRANCH  19  23
ENDBRANCH  18  20
ENDBRANCH  11  18
ENDBRANCH   7  14
ENDBRANCH   5   8
ENDBRANCH   1   5
BRANCH   3  40
ATOM     40  CA  GLU A   6       6.661  -3.335 -23.015  0.00  0.00    +0.149 C 
BRANCH  40  41
ATOM     41  C   GLU A   6       7.938  -3.048 -23.807  0.00  0.00    +0.241 C 
ATOM     42  O   GLU A   6       9.044  -3.282 -23.321  0.00  0.00    -0.273 OA
ATOM     43  N   ASN A   7       7.776  -2.496 -25.006  0.00  0.00    -0.297 N 
ATOM     44  H   ASN A   7       6.814  -2.303 -25.350  0.00  0.00    +0.150 HD
BRANCH  43  45
ATOM     45  CA  ASN A   7       8.913  -2.155 -25.850  0.00  0.00    +0.158 C 
BRANCH  45  46
ATOM     46  C   ASN A   7       9.465  -0.742 -25.618  0.00  0.00    +0.241 C 
ATOM     47  O   ASN A   7      10.673  -0.550 -25.517  0.00  0.00    -0.273 OA
ATOM     48  N   THR A   8       8.593   0.253 -25.534  0.00  0.00    -0.295 N 
ATOM     49  H   THR A   8       7.572   0.055 -25.542  0.00  0.00    +0.150 HD
BRANCH  48  50
ATOM     50  CA  THR A   8       9.074   1.632 -25.430  0.00  0.00    +0.176 C 
BRANCH  50  51
ATOM     51  C   THR A   8       9.679   1.974 -24.059  0.00  0.00    +0.243 C 
ATOM     52  N   LEU A   9       9.142   1.391 -22.988  0.00  0.00    -0.298 N 
ATOM     53  H   LEU A   9       8.354   0.725 -23.115  0.00  0.00    +0.150 HD
ATOM     54  O   THR A   8      10.636   2.752 -23.984  0.00  0.00    -0.273 OA
BRANCH  52  55
ATOM     55  CA  LEU A   9       9.636   1.666 -21.632  0.00  0.00    +0.137 C 
BRANCH  55  56
ATOM     56  C   LEU A   9      11.144   1.415 -21.524  0.00  0.00    +0.227 C 
ATOM     57  O   LEU A   9      11.891   2.220 -20.946  0.00  0.00    -0.286 OA
ENDBRANCH  55  56
BRANCH  55  58
ATOM     58  CB  LEU A   9       8.876   0.816 -20.604  0.00  0.00    +0.028 C 
BRANCH  58  59
ATOM     59  CG  LEU A   9       9.059   1.053 -19.099  0.00  0.00    +0.002 C 
ATOM     60  CD2 LEU A   9       8.271   0.018 -18.287  0.00  0.00    +0.000 C 
ATOM     61  CD1 LEU A   9       8.644   2.469 -18.704  0.00  0.00    +0.000 C 
ENDBRANCH  58  59
ENDBRANCH  55  58
ENDBRANCH  52  55
ENDBRANCH  50  51
BRANCH  50  62
ATOM     62  CB  THR A   8       7.951   2.628 -25.744  0.00  0.00    +0.137 C 
ATOM     63  CG2 THR A   8       7.411   2.393 -27.154  0.00  0.00    +0.034 C 
BRANCH  62  64
ATOM     64  OG1 THR A   8       6.890   2.455 -24.805  0.00  0.00    -0.382 OA
ATOM     65  HG1 THR A   8       6.164   3.098 -25.007  0.00  0.00    +0.210 HD
ENDBRANCH  62  64
ENDBRANCH  50  62
ENDBRANCH  48  50
ENDBRANCH  45  46
BRANCH  45  66
ATOM     66  CB  ASN A   7       8.531  -2.318 -27.317  0.00  0.00    +0.114 C 
BRANCH  66  67
ATOM     67  CG  ASN A   7       8.123  -3.746 -27.660  0.00  0.00    +0.222 C 
ATOM     68  OD1 ASN A   7       8.504  -4.699 -26.974  0.00  0.00    -0.275 OA
ATOM     69  ND2 ASN A   7       7.338  -3.895 -28.723  0.00  0.00    -0.329 N 
ATOM     70 HD21 ASN A   7       7.020  -4.844 -29.006  0.00  0.00    +0.145 HD
ATOM     71 HD22 ASN A   7       7.042  -3.063 -29.271  0.00  0.00    +0.145 HD
ENDBRANCH  66  67
ENDBRANCH  45  66
ENDBRANCH  43  45
ENDBRANCH  40  41
BRANCH  40  72
ATOM     72  CB  GLU A   6       6.099  -4.717 -23.365  0.00  0.00    +0.041 C 
BRANCH  72  73
ATOM     73  CG  GLU A   6       5.310  -4.786 -24.660  0.00  0.00    +0.116 C 
BRANCH  73  74
ATOM     74  CD  GLU A   6       3.809  -4.626 -24.448  0.00  0.00    +0.365 C 
ATOM     75  OE2 GLU A   6       3.408  -3.811 -23.592  0.00  0.00    -0.246 OA
ATOM     76  OE1 GLU A   6       3.031  -5.328 -25.139  0.00  0.00    -0.246 OA
ENDBRANCH  73  74
ENDBRANCH  72  73
ENDBRANCH  40  72
ENDBRANCH   3  40
TORSDOF 31
REMARK  Name = ../refined-set-2016/4ymg/4ymg_pocket.pdb
REMARK  237 active torsions:
REMARK  status: ('A' for Active; 'I' for Inactive)
REMARK    1  A    between atoms: _1  and  _3
REMARK    2  A    between atoms: _3  and  _4
REMARK    3  A    between atoms: _3  and  _6
REMARK    4  A    between atoms: _6  and  _7
REMARK    5  A    between atoms: _12  and  _14
REMARK    6  A    between atoms: _14  and  _15
REMARK    7  A    between atoms: _14  and  _17
REMARK    8  A    between atoms: _17  and  _18
REMARK    9  A    between atoms: _28  and  _30
REMARK   10  A    between atoms: _30  and  _31
REMARK   11  A    between atoms: _30  and  _33
REMARK   12  A    between atoms: _33  and  _34
REMARK   13  A    between atoms: _37  and  _39
REMARK   14  A    between atoms: _39  and  _40
REMARK   15  A    between atoms: _39  and  _42
REMARK   16  A    between atoms: _42  and  _43
REMARK   17  A    between atoms: _46  and  _48
REMARK   18  A    between atoms: _48  and  _49
REMARK   19  A    between atoms: _52  and  _54
REMARK   20  A    between atoms: _54  and  _55
REMARK   21  A    between atoms: _54  and  _57
REMARK   22  A    between atoms: _57  and  _58
REMARK   23  A    between atoms: _61  and  _63
REMARK   24  A    between atoms: _63  and  _64
REMARK   25  A    between atoms: _63  and  _66
REMARK   26  A    between atoms: _66  and  _67
REMARK   27  A    between atoms: _67  and  _68
REMARK   28  A    between atoms: _68  and  _69
REMARK   29  A    between atoms: _69  and  _70
REMARK   30  A    between atoms: _74  and  _76
REMARK   31  A    between atoms: _76  and  _77
REMARK   32  A    between atoms: _76  and  _79
REMARK   33  A    between atoms: _79  and  _80
REMARK   34  A    between atoms: _80  and  _81
REMARK   35  A    between atoms: _83  and  _85
REMARK   36  A    between atoms: _85  and  _86
REMARK   37  A    between atoms: _85  and  _88
REMARK   38  A    between atoms: _88  and  _89
REMARK   39  A    between atoms: _91  and  _93
REMARK   40  A    between atoms: _93  and  _94
REMARK   41  A    between atoms: _93  and  _96
REMARK   42  A    between atoms: _96  and  _97
REMARK   43  A    between atoms: _99  and  _101
REMARK   44  A    between atoms: _101  and  _102
REMARK   45  A    between atoms: _101  and  _104
REMARK   46  A    between atoms: _104  and  _105
REMARK   47  A    between atoms: _105  and  _106
REMARK   48  A    between atoms: _111  and  _113
REMARK   49  A    between atoms: _113  and  _114
REMARK   50  A    between atoms: _116  and  _118
REMARK   51  A    between atoms: _118  and  _119
REMARK   52  A    between atoms: _118  and  _121
REMARK   53  A    between atoms: _121  and  _122
REMARK   54  A    between atoms: _122  and  _123
REMARK   55  A    between atoms: _125  and  _127
REMARK   56  A    between atoms: _127  and  _128
REMARK   57  A    between atoms: _127  and  _130
REMARK   58  A    between atoms: _130  and  _131
REMARK   59  A    between atoms: _131  and  _132
REMARK   60  A    between atoms: _135  and  _137
REMARK   61  A    between atoms: _137  and  _138
REMARK   62  A    between atoms: _137  and  _140
REMARK   63  A    between atoms: _140  and  _141
REMARK   64  A    between atoms: _144  and  _146
REMARK   65  A    between atoms: _146  and  _147
REMARK   66  A    between atoms: _149  and  _151
REMARK   67  A    between atoms: _151  and  _152
REMARK   68  A    between atoms: _151  and  _154
REMARK   69  A    between atoms: _156  and  _158
REMARK   70  A    between atoms: _158  and  _159
REMARK   71  A    between atoms: _158  and  _161
REMARK   72  A    between atoms: _161  and  _162
REMARK   73  A    between atoms: _167  and  _168
REMARK   74  A    between atoms: _170  and  _172
REMARK   75  A    between atoms: _172  and  _173
REMARK   76  A    between atoms: _172  and  _175
REMARK   77  A    between atoms: _175  and  _176
REMARK   78  A    between atoms: _178  and  _180
REMARK   79  A    between atoms: _180  and  _181
REMARK   80  A    between atoms: _183  and  _185
REMARK   81  A    between atoms: _185  and  _186
REMARK   82  A    between atoms: _185  and  _188
REMARK   83  A    between atoms: _188  and  _189
REMARK   84  A    between atoms: _194  and  _195
REMARK   85  A    between atoms: _197  and  _199
REMARK   86  A    between atoms: _199  and  _200
REMARK   87  A    between atoms: _199  and  _202
REMARK   88  A    between atoms: _202  and  _203
REMARK   89  A    between atoms: _205  and  _207
REMARK   90  A    between atoms: _207  and  _208
REMARK   91  A    between atoms: _211  and  _213
REMARK   92  A    between atoms: _213  and  _214
REMARK   93  A    between atoms: _213  and  _216
REMARK   94  A    between atoms: _216  and  _217
REMARK   95  A    between atoms: _220  and  _222
REMARK   96  A    between atoms: _222  and  _223
REMARK   97  A    between atoms: _226  and  _228
REMARK   98  A    between atoms: _228  and  _229
REMARK   99  A    between atoms: _228  and  _231
REMARK  100  A    between atoms: _231  and  _232
REMARK  101  A    between atoms: _242  and  _244
REMARK  102  A    between atoms: _244  and  _245
REMARK  103  A    between atoms: _244  and  _247
REMARK  104  A    between atoms: _247  and  _248
REMARK  105  A    between atoms: _251  and  _253
REMARK  106  A    between atoms: _253  and  _254
REMARK  107  A    between atoms: _253  and  _256
REMARK  108  A    between atoms: _256  and  _257
REMARK  109  A    between atoms: _260  and  _262
REMARK  110  A    between atoms: _262  and  _263
REMARK  111  A    between atoms: _262  and  _265
REMARK  112  A    between atoms: _265  and  _266
REMARK  113  A    between atoms: _266  and  _267
REMARK  114  A    between atoms: _270  and  _272
REMARK  115  A    between atoms: _272  and  _273
REMARK  116  A    between atoms: _272  and  _275
REMARK  117  A    between atoms: _275  and  _276
REMARK  118  A    between atoms: _281  and  _282
REMARK  119  A    between atoms: _284  and  _286
REMARK  120  A    between atoms: _286  and  _287
REMARK  121  A    between atoms: _286  and  _289
REMARK  122  A    between atoms: _289  and  _290
REMARK  123  A    between atoms: _293  and  _294
REMARK  124  A    between atoms: _299  and  _301
REMARK  125  A    between atoms: _301  and  _302
REMARK  126  A    between atoms: _301  and  _304
REMARK  127  A    between atoms: _304  and  _305
REMARK  128  A    between atoms: _305  and  _306
REMARK  129  A    between atoms: _306  and  _307
REMARK  130  A    between atoms: _307  and  _308
REMARK  131  A    between atoms: _312  and  _314
REMARK  132  A    between atoms: _314  and  _315
REMARK  133  A    between atoms: _314  and  _317
REMARK  134  A    between atoms: _317  and  _318
REMARK  135  A    between atoms: _318  and  _319
REMARK  136  A    between atoms: _321  and  _323
REMARK  137  A    between atoms: _323  and  _324
REMARK  138  A    between atoms: _323  and  _326
REMARK  139  A    between atoms: _326  and  _327
REMARK  140  A    between atoms: _330  and  _332
REMARK  141  A    between atoms: _332  and  _333
REMARK  142  A    between atoms: _332  and  _335
REMARK  143  A    between atoms: _335  and  _336
REMARK  144  A    between atoms: _338  and  _340
REMARK  145  A    between atoms: _340  and  _341
REMARK  146  A    between atoms: _340  and  _343
REMARK  147  A    between atoms: _343  and  _344
REMARK  148  A    between atoms: _347  and  _349
REMARK  149  A    between atoms: _349  and  _350
REMARK  150  A    between atoms: _349  and  _352
REMARK  151  A    between atoms: _352  and  _353
REMARK  152  A    between atoms: _353  and  _354
REMARK  153  A    between atoms: _357  and  _359
REMARK  154  A    between atoms: _359  and  _360
REMARK  155  A    between atoms: _363  and  _364
REMARK  156  A    between atoms: _369  and  _371
REMARK  157  A    between atoms: _371  and  _372
REMARK  158  A    between atoms: _375  and  _377
REMARK  159  A    between atoms: _377  and  _378
REMARK  160  A    between atoms: _377  and  _380
REMARK  161  A    between atoms: _380  and  _381
REMARK  162  A    between atoms: _381  and  _382
REMARK  163  A    between atoms: _385  and  _387
REMARK  164  A    between atoms: _387  and  _388
REMARK  165  A    between atoms: _387  and  _390
REMARK  166  A    between atoms: _390  and  _391
REMARK  167  A    between atoms: _396  and  _398
REMARK  168  A    between atoms: _398  and  _399
REMARK  169  A    between atoms: _398  and  _401
REMARK  170  A    between atoms: _401  and  _402
REMARK  171  A    between atoms: _405  and  _407
REMARK  172  A    between atoms: _407  and  _408
REMARK  173  A    between atoms: _407  and  _410
REMARK  174  A    between atoms: _410  and  _411
REMARK  175  A    between atoms: _414  and  _416
REMARK  176  A    between atoms: _416  and  _417
REMARK  177  A    between atoms: _416  and  _419
REMARK  178  A    between atoms: _419  and  _420
REMARK  179  A    between atoms: _426  and  _428
REMARK  180  A    between atoms: _428  and  _429
REMARK  181  A    between atoms: _428  and  _431
REMARK  182  A    between atoms: _434  and  _436
REMARK  183  A    between atoms: _436  and  _437
REMARK  184  A    between atoms: _436  and  _439
REMARK  185  A    between atoms: _439  and  _440
REMARK  186  A    between atoms: _443  and  _445
REMARK  187  A    between atoms: _445  and  _446
REMARK  188  A    between atoms: _449  and  _451
REMARK  189  A    between atoms: _451  and  _452
REMARK  190  A    between atoms: _451  and  _454
REMARK  191  A    between atoms: _454  and  _455
REMARK  192  A    between atoms: _460  and  _462
REMARK  193  A    between atoms: _462  and  _463
REMARK  194  A    between atoms: _462  and  _465
REMARK  195  A    between atoms: _465  and  _466
REMARK  196  A    between atoms: _466  and  _467
REMARK  197  A    between atoms: _467  and  _468
REMARK  198  A    between atoms: _468  and  _469
REMARK  199  A    between atoms: _473  and  _475
REMARK  200  A    between atoms: _475  and  _476
REMARK  201  A    between atoms: _475  and  _478
REMARK  202  A    between atoms: _478  and  _479
REMARK  203  A    between atoms: _482  and  _484
REMARK  204  A    between atoms: _484  and  _485
REMARK  205  A    between atoms: _487  and  _489
REMARK  206  A    between atoms: _489  and  _490
REMARK  207  A    between atoms: _489  and  _492
REMARK  208  A    between atoms: _492  and  _493
REMARK  209  A    between atoms: _498  and  _499
REMARK  210  A    between atoms: _501  and  _503
REMARK  211  A    between atoms: _503  and  _504
REMARK  212  A    between atoms: _503  and  _506
REMARK  213  A    between atoms: _506  and  _507
REMARK  214  A    between atoms: _512  and  _513
REMARK  215  A    between atoms: _515  and  _517
REMARK  216  A    between atoms: _517  and  _518
REMARK  217  A    between atoms: _517  and  _520
REMARK  218  A    between atoms: _520  and  _521
REMARK  219  A    between atoms: _524  and  _526
REMARK  220  A    between atoms: _526  and  _527
REMARK  221  A    between atoms: _526  and  _529
REMARK  222  A    between atoms: _529  and  _530
REMARK  223  A    between atoms: _535  and  _537
REMARK  224  A    between atoms: _537  and  _538
REMARK  225  A    between atoms: _537  and  _540
REMARK  226  A    between atoms: _540  and  _541
REMARK  227  A    between atoms: _541  and  _542
REMARK  228  A    between atoms: _542  and  _543
REMARK  229  A    between atoms: _552  and  _554
REMARK  230  A    between atoms: _554  and  _555
REMARK  231  A    between atoms: _554  and  _557
REMARK  232  A    between atoms: _557  and  _558
REMARK  233  A    between atoms: _563  and  _564
REMARK  234  A    between atoms: _566  and  _568
REMARK  235  A    between atoms: _568  and  _569
REMARK  236  A    between atoms: _568  and  _571
REMARK  237  A    between atoms: _571  and  _572
REMARK                            x       y       z     vdW  Elec       q    Type
REMARK                         _______ _______ _______ _____ _____    ______ ____
ROOT
ATOM      1  CA  ASN A   5      -2.614  -2.903 -18.962  0.00  0.00    +0.158 C 
ENDROOT
BRANCH   1   2
ATOM      2  C   ASN A   5      -2.221  -3.586 -17.661  0.00  0.00    +0.241 C 
ATOM      3  N   LYS A   6      -3.233  -4.023 -16.923  0.00  0.00    -0.297 N 
ATOM      4  H   LYS A   6      -4.193  -4.041 -17.322  0.00  0.00    +0.150 HD
ATOM      5  O   ASN A   5      -1.045  -3.722 -17.328  0.00  0.00    -0.273 OA
BRANCH   3   6
ATOM      6  CA  LYS A   6      -3.009  -4.477 -15.562  0.00  0.00    +0.149 C 
BRANCH   6   7
ATOM      7  C   LYS A   6      -2.191  -5.770 -15.538  0.00  0.00    +0.241 C 
ATOM      8  O   LYS A   6      -1.394  -5.984 -14.621  0.00  0.00    -0.273 OA
ATOM      9  N   ASP A   7      -2.317  -6.581 -16.586  0.00  0.00    -0.297 N 
ATOM     10  H   ASP A   7      -2.976  -6.328 -17.350  0.00  0.00    +0.150 HD
BRANCH   9  11
ATOM     11  CA  ASP A   7      -1.548  -7.819 -16.683  0.00  0.00    +0.160 C 
BRANCH  11  12
ATOM     12  C   ASP A   7      -0.054  -7.562 -16.879  0.00  0.00    +0.241 C 
ATOM     13  O   ASP A   7       0.764  -8.488 -16.790  0.00  0.00    -0.273 OA
ATOM     14  N   GLY A   8       0.306  -6.314 -17.153  0.00  0.00    -0.295 N 
ATOM     15  H   GLY A   8      -0.415  -5.565 -17.184  0.00  0.00    +0.150 HD
BRANCH  14  16
ATOM     16  CA  GLY A   8       1.696  -5.986 -17.409  0.00  0.00    +0.176 C 
BRANCH  16  17
ATOM     17  C   GLY A   8       2.392  -5.182 -16.317  0.00  0.00    +0.243 C 
ATOM     18  N   TYR A   9       1.687  -4.863 -15.235  0.00  0.00    -0.298 N 
ATOM     19  H   TYR A   9       0.714  -5.218 -15.138  0.00  0.00    +0.150 HD
ATOM     20  O   GLY A   8       3.563  -4.852 -16.459  0.00  0.00    -0.273 OA
BRANCH  18  21
ATOM     21  CA  TYR A   9       2.257  -4.016 -14.170  0.00  0.00    +0.141 C 
BRANCH  21  22
ATOM     22  C   TYR A   9       3.560  -4.589 -13.613  0.00  0.00    +0.227 C 
ATOM     23  O   TYR A   9       4.509  -3.853 -13.358  0.00  0.00    -0.286 OA
ENDBRANCH  21  22
BRANCH  21  24
ATOM     24  CB  TYR A   9       1.267  -3.838 -13.013  0.00  0.00    +0.054 C 
BRANCH  24  25
ATOM     25  CG  TYR A   9       0.194  -2.779 -13.196  0.00  0.00    -0.020 A 
ATOM     26  CD2 TYR A   9      -0.415  -2.193 -12.087  0.00  0.00    -0.001 A 
ATOM     27  CE2 TYR A   9      -1.391  -1.235 -12.228  0.00  0.00    +0.036 A 
ATOM     28  CZ  TYR A   9      -1.792  -0.829 -13.483  0.00  0.00    +0.134 A 
ATOM     29  CE1 TYR A   9      -1.212  -1.383 -14.608  0.00  0.00    +0.036 A 
ATOM     30  CD1 TYR A   9      -0.214  -2.362 -14.458  0.00  0.00    -0.001 A 
BRANCH  28  31
ATOM     31  OH  TYR A   9      -2.780   0.139 -13.589  0.00  0.00    -0.506 OA
ATOM     32  HH  TYR A   9      -3.608  -0.187 -13.155  0.00  0.00    +0.292 HD
ENDBRANCH  28  31
ENDBRANCH  24  25
ENDBRANCH  21  24
ENDBRANCH  18  21
ENDBRANCH  16  17
ENDBRANCH  14  16
ENDBRANCH  11  12
BRANCH  11  33
ATOM     33  CB  ASP A   7      -2.065  -8.686 -17.834  0.00  0.00    +0.143 C 
BRANCH  33  34
ATOM     34  CG  ASP A   7      -1.769  -8.081 -19.196  0.00  0.00    +0.367 C 
ATOM     35  OD2 ASP A   7      -1.839  -6.838 -19.334  0.00  0.00    -0.246 OA
ATOM     36  OD1 ASP A   7      -1.451  -8.848 -20.130  0.00  0.00    -0.246 OA
ENDBRANCH  33  34
ENDBRANCH  11  33
ENDBRANCH   9  11
ENDBRANCH   6   7
BRANCH   6  37
ATOM     37  CB  LYS A   6      -4.359  -4.608 -14.844  0.00  0.00    +0.029 C 
BRANCH  37  38
ATOM     38  CG  LYS A   6      -4.960  -3.218 -14.589  0.00  0.00    +0.000 C 
BRANCH  38  39
ATOM     39  CD  LYS A   6      -6.462  -3.212 -14.718  0.00  0.00    -0.024 C 
BRANCH  39  40
ATOM     40  CE  LYS A   6      -6.968  -1.797 -14.951  0.00  0.00    -0.086 C 
BRANCH  40  41
ATOM     41  NZ  LYS A   6      -7.773  -1.715 -16.204  0.00  0.00    +0.380 N 
ATOM     42  HZ1 LYS A   6      -8.590  -2.354 -16.132  0.00  0.00    -0.089 HD
ATOM     43  HZ2 LYS A   6      -8.105  -0.739 -16.338  0.00  0.00    -0.089 HD
ATOM     44  HZ3 LYS A   6      -7.183  -1.996 -17.013  0.00  0.00    -0.089 HD
ENDBRANCH  40  41
ENDBRANCH  39  40
ENDBRANCH  38  39
ENDBRANCH  37  38
ENDBRANCH   6  37
ENDBRANCH   3   6
ENDBRANCH   1   2
BRANCH   1  47
ATOM     45  C   ALA A   4      -2.609  -0.606 -18.270  0.00  0.00    +0.241 C 
ATOM     46  O   ALA A   4      -3.481  -0.847 -17.427  0.00  0.00    -0.273 OA
ATOM     47  N   ASN A   5      -2.077  -1.550 -19.032  0.00  0.00    -0.297 N 
ATOM     48  H   ASN A   5      -1.287  -1.329 -19.671  0.00  0.00    +0.150 HD
BRANCH  45  49
ATOM     49  CA  ALA A   4      -2.126   0.820 -18.485  0.00  0.00    +0.149 C 
ATOM     50  CB  ALA A   4      -0.951   0.873 -19.447  0.00  0.00    +0.031 C 
BRANCH  49  52
ATOM     51  C   ASP A   3      -2.450   2.490 -16.814  0.00  0.00    +0.241 C 
ATOM     52  N   ALA A   4      -1.779   1.424 -17.207  0.00  0.00    -0.297 N 
ATOM     53  H   ALA A   4      -1.021   1.025 -16.618  0.00  0.00    +0.150 HD
ATOM     54  O   ASP A   3      -3.333   2.980 -17.500  0.00  0.00    -0.273 OA
BRANCH  51  55
ATOM     55  CA  ASP A   3      -2.073   3.092 -15.460  0.00  0.00    +0.160 C 
BRANCH  55  58
ATOM     56  C   VAL A   2      -0.086   2.966 -14.048  0.00  0.00    +0.241 C 
ATOM     57  O   VAL A   2      -0.738   2.715 -13.022  0.00  0.00    -0.273 OA
ATOM     58  N   ASP A   3      -0.626   3.057 -15.262  0.00  0.00    -0.297 N 
ATOM     59  H   ASP A   3      -0.001   3.104 -16.092  0.00  0.00    +0.150 HD
BRANCH  56  60
ATOM     60  CA  VAL A   2       1.410   3.202 -13.974  0.00  0.00    +0.148 C 
BRANCH  60  62
ATOM     61  C   PHE A   1       1.933   5.563 -13.777  0.00  0.00    +0.239 C 
ATOM     62  N   VAL A   2       1.657   4.406 -13.192  0.00  0.00    -0.297 N 
ATOM     63  H   VAL A   2       1.616   4.357 -12.154  0.00  0.00    +0.150 HD
ATOM     64  O   PHE A   1       1.953   5.708 -14.998  0.00  0.00    -0.274 OA
BRANCH  61  65
ATOM     65  CA  PHE A   1       2.269   6.717 -12.849  0.00  0.00    +0.149 C 
BRANCH  65  66
ATOM     66  N   PHE A   1       3.683   7.042 -13.001  0.00  0.00    -0.238 NA
ATOM     67  H   PHE A   1       4.013   7.431 -13.907  0.00  0.00    +0.142 HD
ENDBRANCH  65  66
BRANCH  65  68
ATOM     68  CB  PHE A   1       1.395   7.933 -13.157  0.00  0.00    +0.053 C 
BRANCH  68  69
ATOM     69  CG  PHE A   1      -0.103   7.694 -12.969  0.00  0.00    -0.020 A 
ATOM     70  CD2 PHE A   1      -0.601   7.195 -11.772  0.00  0.00    -0.004 A 
ATOM     71  CE2 PHE A   1      -1.977   7.012 -11.588  0.00  0.00    -0.000 A 
ATOM     72  CZ  PHE A   1      -2.872   7.333 -12.604  0.00  0.00    -0.000 A 
ATOM     73  CE1 PHE A   1      -2.392   7.832 -13.805  0.00  0.00    -0.000 A 
ATOM     74  CD1 PHE A   1      -1.009   8.018 -13.980  0.00  0.00    -0.004 A 
ENDBRANCH  68  69
ENDBRANCH  65  68
ENDBRANCH  61  65
ENDBRANCH  60  62
BRANCH  60  75
ATOM     75  CB  VAL A   2       2.119   1.972 -13.360  0.00  0.00    +0.027 C 
ATOM     76  CG2 VAL A   2       3.621   2.229 -13.267  0.00  0.00    +0.002 C 
ATOM     77  CG1 VAL A   2       1.817   0.701 -14.168  0.00  0.00    +0.002 C 
ENDBRANCH  60  75
ENDBRANCH  56  60
ENDBRANCH  55  58
BRANCH  55  78
ATOM     78  CB  ASP A   3      -2.579   4.536 -15.354  0.00  0.00    +0.143 C 
BRANCH  78  79
ATOM     79  CG  ASP A   3      -4.088   4.631 -15.260  0.00  0.00    +0.367 C 
ATOM     80  OD2 ASP A   3      -4.737   3.683 -14.759  0.00  0.00    -0.246 OA
ATOM     81  OD1 ASP A   3      -4.627   5.673 -15.684  0.00  0.00    -0.246 OA
ENDBRANCH  78  79
ENDBRANCH  55  78
ENDBRANCH  51  55
ENDBRANCH  49  52
ENDBRANCH  45  49
ENDBRANCH   1  47
BRANCH   1  82
ATOM     82  CB  ASN A   5      -2.185  -3.738 -20.169  0.00  0.00    +0.114 C 
BRANCH  82  83
ATOM     83  CG  ASN A   5      -0.696  -3.808 -20.331  0.00  0.00    +0.222 C 
ATOM     84  OD1 ASN A   5      -0.026  -2.780 -20.395  0.00  0.00    -0.275 OA
ATOM     85  ND2 ASN A   5      -0.160  -5.034 -20.414  0.00  0.00    -0.329 N 
ATOM     86 HD21 ASN A   5      -0.771  -5.874 -20.354  0.00  0.00    +0.145 HD
ATOM     87 HD22 ASN A   5       0.867  -5.145 -20.538  0.00  0.00    +0.145 HD
ENDBRANCH  82  83
ENDBRANCH   1  82
TORSDOF 35
REMARK  Name = ../refined-set-2016/4ymg/4ymg_pocket.pdb
REMARK  237 active torsions:
REMARK  status: ('A' for Active; 'I' for Inactive)
REMARK    1  A    between atoms: _1  and  _3
REMARK    2  A    between atoms: _3  and  _4
REMARK    3  A    between atoms: _3  and  _6
REMARK    4  A    between atoms: _6  and  _7
REMARK    5  A    between atoms: _12  and  _14
REMARK    6  A    between atoms: _14  and  _15
REMARK    7  A    between atoms: _14  and  _17
REMARK    8  A    between atoms: _17  and  _18
REMARK    9  A    between atoms: _28  and  _30
REMARK   10  A    between atoms: _30  and  _31
REMARK   11  A    between atoms: _30  and  _33
REMARK   12  A    between atoms: _33  and  _34
REMARK   13  A    between atoms: _37  and  _39
REMARK   14  A    between atoms: _39  and  _40
REMARK   15  A    between atoms: _39  and  _42
REMARK   16  A    between atoms: _42  and  _43
REMARK   17  A    between atoms: _46  and  _48
REMARK   18  A    between atoms: _48  and  _49
REMARK   19  A    between atoms: _52  and  _54
REMARK   20  A    between atoms: _54  and  _55
REMARK   21  A    between atoms: _54  and  _57
REMARK   22  A    between atoms: _57  and  _58
REMARK   23  A    between atoms: _61  and  _63
REMARK   24  A    between atoms: _63  and  _64
REMARK   25  A    between atoms: _63  and  _66
REMARK   26  A    between atoms: _66  and  _67
REMARK   27  A    between atoms: _67  and  _68
REMARK   28  A    between atoms: _68  and  _69
REMARK   29  A    between atoms: _69  and  _70
REMARK   30  A    between atoms: _74  and  _76
REMARK   31  A    between atoms: _76  and  _77
REMARK   32  A    between atoms: _76  and  _79
REMARK   33  A    between atoms: _79  and  _80
REMARK   34  A    between atoms: _80  and  _81
REMARK   35  A    between atoms: _83  and  _85
REMARK   36  A    between atoms: _85  and  _86
REMARK   37  A    between atoms: _85  and  _88
REMARK   38  A    between atoms: _88  and  _89
REMARK   39  A    between atoms: _91  and  _93
REMARK   40  A    between atoms: _93  and  _94
REMARK   41  A    between atoms: _93  and  _96
REMARK   42  A    between atoms: _96  and  _97
REMARK   43  A    between atoms: _99  and  _101
REMARK   44  A    between atoms: _101  and  _102
REMARK   45  A    between atoms: _101  and  _104
REMARK   46  A    between atoms: _104  and  _105
REMARK   47  A    between atoms: _105  and  _106
REMARK   48  A    between atoms: _111  and  _113
REMARK   49  A    between atoms: _113  and  _114
REMARK   50  A    between atoms: _116  and  _118
REMARK   51  A    between atoms: _118  and  _119
REMARK   52  A    between atoms: _118  and  _121
REMARK   53  A    between atoms: _121  and  _122
REMARK   54  A    between atoms: _122  and  _123
REMARK   55  A    between atoms: _125  and  _127
REMARK   56  A    between atoms: _127  and  _128
REMARK   57  A    between atoms: _127  and  _130
REMARK   58  A    between atoms: _130  and  _131
REMARK   59  A    between atoms: _131  and  _132
REMARK   60  A    between atoms: _135  and  _137
REMARK   61  A    between atoms: _137  and  _138
REMARK   62  A    between atoms: _137  and  _140
REMARK   63  A    between atoms: _140  and  _141
REMARK   64  A    between atoms: _144  and  _146
REMARK   65  A    between atoms: _146  and  _147
REMARK   66  A    between atoms: _149  and  _151
REMARK   67  A    between atoms: _151  and  _152
REMARK   68  A    between atoms: _151  and  _154
REMARK   69  A    between atoms: _156  and  _158
REMARK   70  A    between atoms: _158  and  _159
REMARK   71  A    between atoms: _158  and  _161
REMARK   72  A    between atoms: _161  and  _162
REMARK   73  A    between atoms: _167  and  _168
REMARK   74  A    between atoms: _170  and  _172
REMARK   75  A    between atoms: _172  and  _173
REMARK   76  A    between atoms: _172  and  _175
REMARK   77  A    between atoms: _175  and  _176
REMARK   78  A    between atoms: _178  and  _180
REMARK   79  A    between atoms: _180  and  _181
REMARK   80  A    between atoms: _183  and  _185
REMARK   81  A    between atoms: _185  and  _186
REMARK   82  A    between atoms: _185  and  _188
REMARK   83  A    between atoms: _188  and  _189
REMARK   84  A    between atoms: _194  and  _195
REMARK   85  A    between atoms: _197  and  _199
REMARK   86  A    between atoms: _199  and  _200
REMARK   87  A    between atoms: _199  and  _202
REMARK   88  A    between atoms: _202  and  _203
REMARK   89  A    between atoms: _205  and  _207
REMARK   90  A    between atoms: _207  and  _208
REMARK   91  A    between atoms: _211  and  _213
REMARK   92  A    between atoms: _213  and  _214
REMARK   93  A    between atoms: _213  and  _216
REMARK   94  A    between atoms: _216  and  _217
REMARK   95  A    between atoms: _220  and  _222
REMARK   96  A    between atoms: _222  and  _223
REMARK   97  A    between atoms: _226  and  _228
REMARK   98  A    between atoms: _228  and  _229
REMARK   99  A    between atoms: _228  and  _231
REMARK  100  A    between atoms: _231  and  _232
REMARK  101  A    between atoms: _242  and  _244
REMARK  102  A    between atoms: _244  and  _245
REMARK  103  A    between atoms: _244  and  _247
REMARK  104  A    between atoms: _247  and  _248
REMARK  105  A    between atoms: _251  and  _253
REMARK  106  A    between atoms: _253  and  _254
REMARK  107  A    between atoms: _253  and  _256
REMARK  108  A    between atoms: _256  and  _257
REMARK  109  A    between atoms: _260  and  _262
REMARK  110  A    between atoms: _262  and  _263
REMARK  111  A    between atoms: _262  and  _265
REMARK  112  A    between atoms: _265  and  _266
REMARK  113  A    between atoms: _266  and  _267
REMARK  114  A    between atoms: _270  and  _272
REMARK  115  A    between atoms: _272  and  _273
REMARK  116  A    between atoms: _272  and  _275
REMARK  117  A    between atoms: _275  and  _276
REMARK  118  A    between atoms: _281  and  _282
REMARK  119  A    between atoms: _284  and  _286
REMARK  120  A    between atoms: _286  and  _287
REMARK  121  A    between atoms: _286  and  _289
REMARK  122  A    between atoms: _289  and  _290
REMARK  123  A    between atoms: _293  and  _294
REMARK  124  A    between atoms: _299  and  _301
REMARK  125  A    between atoms: _301  and  _302
REMARK  126  A    between atoms: _301  and  _304
REMARK  127  A    between atoms: _304  and  _305
REMARK  128  A    between atoms: _305  and  _306
REMARK  129  A    between atoms: _306  and  _307
REMARK  130  A    between atoms: _307  and  _308
REMARK  131  A    between atoms: _312  and  _314
REMARK  132  A    between atoms: _314  and  _315
REMARK  133  A    between atoms: _314  and  _317
REMARK  134  A    between atoms: _317  and  _318
REMARK  135  A    between atoms: _318  and  _319
REMARK  136  A    between atoms: _321  and  _323
REMARK  137  A    between atoms: _323  and  _324
REMARK  138  A    between atoms: _323  and  _326
REMARK  139  A    between atoms: _326  and  _327
REMARK  140  A    between atoms: _330  and  _332
REMARK  141  A    between atoms: _332  and  _333
REMARK  142  A    between atoms: _332  and  _335
REMARK  143  A    between atoms: _335  and  _336
REMARK  144  A    between atoms: _338  and  _340
REMARK  145  A    between atoms: _340  and  _341
REMARK  146  A    between atoms: _340  and  _343
REMARK  147  A    between atoms: _343  and  _344
REMARK  148  A    between atoms: _347  and  _349
REMARK  149  A    between atoms: _349  and  _350
REMARK  150  A    between atoms: _349  and  _352
REMARK  151  A    between atoms: _352  and  _353
REMARK  152  A    between atoms: _353  and  _354
REMARK  153  A    between atoms: _357  and  _359
REMARK  154  A    between atoms: _359  and  _360
REMARK  155  A    between atoms: _363  and  _364
REMARK  156  A    between atoms: _369  and  _371
REMARK  157  A    between atoms: _371  and  _372
REMARK  158  A    between atoms: _375  and  _377
REMARK  159  A    between atoms: _377  and  _378
REMARK  160  A    between atoms: _377  and  _380
REMARK  161  A    between atoms: _380  and  _381
REMARK  162  A    between atoms: _381  and  _382
REMARK  163  A    between atoms: _385  and  _387
REMARK  164  A    between atoms: _387  and  _388
REMARK  165  A    between atoms: _387  and  _390
REMARK  166  A    between atoms: _390  and  _391
REMARK  167  A    between atoms: _396  and  _398
REMARK  168  A    between atoms: _398  and  _399
REMARK  169  A    between atoms: _398  and  _401
REMARK  170  A    between atoms: _401  and  _402
REMARK  171  A    between atoms: _405  and  _407
REMARK  172  A    between atoms: _407  and  _408
REMARK  173  A    between atoms: _407  and  _410
REMARK  174  A    between atoms: _410  and  _411
REMARK  175  A    between atoms: _414  and  _416
REMARK  176  A    between atoms: _416  and  _417
REMARK  177  A    between atoms: _416  and  _419
REMARK  178  A    between atoms: _419  and  _420
REMARK  179  A    between atoms: _426  and  _428
REMARK  180  A    between atoms: _428  and  _429
REMARK  181  A    between atoms: _428  and  _431
REMARK  182  A    between atoms: _434  and  _436
REMARK  183  A    between atoms: _436  and  _437
REMARK  184  A    between atoms: _436  and  _439
REMARK  185  A    between atoms: _439  and  _440
REMARK  186  A    between atoms: _443  and  _445
REMARK  187  A    between atoms: _445  and  _446
REMARK  188  A    between atoms: _449  and  _451
REMARK  189  A    between atoms: _451  and  _452
REMARK  190  A    between atoms: _451  and  _454
REMARK  191  A    between atoms: _454  and  _455
REMARK  192  A    between atoms: _460  and  _462
REMARK  193  A    between atoms: _462  and  _463
REMARK  194  A    between atoms: _462  and  _465
REMARK  195  A    between atoms: _465  and  _466
REMARK  196  A    between atoms: _466  and  _467
REMARK  197  A    between atoms: _467  and  _468
REMARK  198  A    between atoms: _468  and  _469
REMARK  199  A    between atoms: _473  and  _475
REMARK  200  A    between atoms: _475  and  _476
REMARK  201  A    between atoms: _475  and  _478
REMARK  202  A    between atoms: _478  and  _479
REMARK  203  A    between atoms: _482  and  _484
REMARK  204  A    between atoms: _484  and  _485
REMARK  205  A    between atoms: _487  and  _489
REMARK  206  A    between atoms: _489  and  _490
REMARK  207  A    between atoms: _489  and  _492
REMARK  208  A    between atoms: _492  and  _493
REMARK  209  A    between atoms: _498  and  _499
REMARK  210  A    between atoms: _501  and  _503
REMARK  211  A    between atoms: _503  and  _504
REMARK  212  A    between atoms: _503  and  _506
REMARK  213  A    between atoms: _506  and  _507
REMARK  214  A    between atoms: _512  and  _513
REMARK  215  A    between atoms: _515  and  _517
REMARK  216  A    between atoms: _517  and  _518
REMARK  217  A    between atoms: _517  and  _520
REMARK  218  A    between atoms: _520  and  _521
REMARK  219  A    between atoms: _524  and  _526
REMARK  220  A    between atoms: _526  and  _527
REMARK  221  A    between atoms: _526  and  _529
REMARK  222  A    between atoms: _529  and  _530
REMARK  223  A    between atoms: _535  and  _537
REMARK  224  A    between atoms: _537  and  _538
REMARK  225  A    between atoms: _537  and  _540
REMARK  226  A    between atoms: _540  and  _541
REMARK  227  A    between atoms: _541  and  _542
REMARK  228  A    between atoms: _542  and  _543
REMARK  229  A    between atoms: _552  and  _554
REMARK  230  A    between atoms: _554  and  _555
REMARK  231  A    between atoms: _554  and  _557
REMARK  232  A    between atoms: _557  and  _558
REMARK  233  A    between atoms: _563  and  _564
REMARK  234  A    between atoms: _566  and  _568
REMARK  235  A    between atoms: _568  and  _569
REMARK  236  A    between atoms: _568  and  _571
REMARK  237  A    between atoms: _571  and  _572
REMARK                            x       y       z     vdW  Elec       q    Type
REMARK                         _______ _______ _______ _____ _____    ______ ____
ROOT
ATOM      1  CG  TYR A   1       4.591  -1.803 -17.293  0.00  0.00    -0.020 A 
ATOM      2  CD2 TYR A   1       3.208  -1.645 -17.281  0.00  0.00    -0.001 A 
ATOM      3  CE2 TYR A   1       2.459  -1.792 -18.451  0.00  0.00    +0.036 A 
ATOM      4  CZ  TYR A   1       3.108  -2.108 -19.639  0.00  0.00    +0.134 A 
ATOM      5  CE1 TYR A   1       4.467  -2.273 -19.654  0.00  0.00    +0.036 A 
ATOM      6  CD1 TYR A   1       5.198  -2.125 -18.496  0.00  0.00    -0.001 A 
ENDROOT
BRANCH   4   7
ATOM      7  OH  TYR A   1       2.418  -2.280 -20.824  0.00  0.00    -0.506 OA
ATOM      8  HH  TYR A   1       1.768  -3.020 -20.722  0.00  0.00    +0.292 HD
ENDBRANCH   4   7
BRANCH   1   9
ATOM      9  CB  TYR A   1       5.419  -1.650 -16.034  0.00  0.00    +0.051 C 
BRANCH   9  10
ATOM     10  CA  TYR A   1       6.705  -2.486 -16.042  0.00  0.00    +0.137 C 
BRANCH  10  11
ATOM     11  N   TYR A   1       6.393  -3.927 -16.045  0.00  0.00    -0.239 NA
ATOM     12  H   TYR A   1       5.399  -4.233 -16.043  0.00  0.00    +0.142 HD
ENDBRANCH  10  11
BRANCH  10  13
ATOM     13  C   TYR A   1       7.576  -2.106 -14.856  0.00  0.00    +0.224 C 
ATOM     14  O   TYR A   1       8.622  -1.491 -15.029  0.00  0.00    -0.287 OA
ENDBRANCH  10  13
ENDBRANCH   9  10
ENDBRANCH   1   9
TORSDOF 5
REMARK  Name = ../refined-set-2016/4ymg/4ymg_pocket.pdb
REMARK  237 active torsions:
REMARK  status: ('A' for Active; 'I' for Inactive)
REMARK    1  A    between atoms: _1  and  _3
REMARK    2  A    between atoms: _3  and  _4
REMARK    3  A    between atoms: _3  and  _6
REMARK    4  A    between atoms: _6  and  _7
REMARK    5  A    between atoms: _12  and  _14
REMARK    6  A    between atoms: _14  and  _15
REMARK    7  A    between atoms: _14  and  _17
REMARK    8  A    between atoms: _17  and  _18
REMARK    9  A    between atoms: _28  and  _30
REMARK   10  A    between atoms: _30  and  _31
REMARK   11  A    between atoms: _30  and  _33
REMARK   12  A    between atoms: _33  and  _34
REMARK   13  A    between atoms: _37  and  _39
REMARK   14  A    between atoms: _39  and  _40
REMARK   15  A    between atoms: _39  and  _42
REMARK   16  A    between atoms: _42  and  _43
REMARK   17  A    between atoms: _46  and  _48
REMARK   18  A    between atoms: _48  and  _49
REMARK   19  A    between atoms: _52  and  _54
REMARK   20  A    between atoms: _54  and  _55
REMARK   21  A    between atoms: _54  and  _57
REMARK   22  A    between atoms: _57  and  _58
REMARK   23  A    between atoms: _61  and  _63
REMARK   24  A    between atoms: _63  and  _64
REMARK   25  A    between atoms: _63  and  _66
REMARK   26  A    between atoms: _66  and  _67
REMARK   27  A    between atoms: _67  and  _68
REMARK   28  A    between atoms: _68  and  _69
REMARK   29  A    between atoms: _69  and  _70
REMARK   30  A    between atoms: _74  and  _76
REMARK   31  A    between atoms: _76  and  _77
REMARK   32  A    between atoms: _76  and  _79
REMARK   33  A    between atoms: _79  and  _80
REMARK   34  A    between atoms: _80  and  _81
REMARK   35  A    between atoms: _83  and  _85
REMARK   36  A    between atoms: _85  and  _86
REMARK   37  A    between atoms: _85  and  _88
REMARK   38  A    between atoms: _88  and  _89
REMARK   39  A    between atoms: _91  and  _93
REMARK   40  A    between atoms: _93  and  _94
REMARK   41  A    between atoms: _93  and  _96
REMARK   42  A    between atoms: _96  and  _97
REMARK   43  A    between atoms: _99  and  _101
REMARK   44  A    between atoms: _101  and  _102
REMARK   45  A    between atoms: _101  and  _104
REMARK   46  A    between atoms: _104  and  _105
REMARK   47  A    between atoms: _105  and  _106
REMARK   48  A    between atoms: _111  and  _113
REMARK   49  A    between atoms: _113  and  _114
REMARK   50  A    between atoms: _116  and  _118
REMARK   51  A    between atoms: _118  and  _119
REMARK   52  A    between atoms: _118  and  _121
REMARK   53  A    between atoms: _121  and  _122
REMARK   54  A    between atoms: _122  and  _123
REMARK   55  A    between atoms: _125  and  _127
REMARK   56  A    between atoms: _127  and  _128
REMARK   57  A    between atoms: _127  and  _130
REMARK   58  A    between atoms: _130  and  _131
REMARK   59  A    between atoms: _131  and  _132
REMARK   60  A    between atoms: _135  and  _137
REMARK   61  A    between atoms: _137  and  _138
REMARK   62  A    between atoms: _137  and  _140
REMARK   63  A    between atoms: _140  and  _141
REMARK   64  A    between atoms: _144  and  _146
REMARK   65  A    between atoms: _146  and  _147
REMARK   66  A    between atoms: _149  and  _151
REMARK   67  A    between atoms: _151  and  _152
REMARK   68  A    between atoms: _151  and  _154
REMARK   69  A    between atoms: _156  and  _158
REMARK   70  A    between atoms: _158  and  _159
REMARK   71  A    between atoms: _158  and  _161
REMARK   72  A    between atoms: _161  and  _162
REMARK   73  A    between atoms: _167  and  _168
REMARK   74  A    between atoms: _170  and  _172
REMARK   75  A    between atoms: _172  and  _173
REMARK   76  A    between atoms: _172  and  _175
REMARK   77  A    between atoms: _175  and  _176
REMARK   78  A    between atoms: _178  and  _180
REMARK   79  A    between atoms: _180  and  _181
REMARK   80  A    between atoms: _183  and  _185
REMARK   81  A    between atoms: _185  and  _186
REMARK   82  A    between atoms: _185  and  _188
REMARK   83  A    between atoms: _188  and  _189
REMARK   84  A    between atoms: _194  and  _195
REMARK   85  A    between atoms: _197  and  _199
REMARK   86  A    between atoms: _199  and  _200
REMARK   87  A    between atoms: _199  and  _202
REMARK   88  A    between atoms: _202  and  _203
REMARK   89  A    between atoms: _205  and  _207
REMARK   90  A    between atoms: _207  and  _208
REMARK   91  A    between atoms: _211  and  _213
REMARK   92  A    between atoms: _213  and  _214
REMARK   93  A    between atoms: _213  and  _216
REMARK   94  A    between atoms: _216  and  _217
REMARK   95  A    between atoms: _220  and  _222
REMARK   96  A    between atoms: _222  and  _223
REMARK   97  A    between atoms: _226  and  _228
REMARK   98  A    between atoms: _228  and  _229
REMARK   99  A    between atoms: _228  and  _231
REMARK  100  A    between atoms: _231  and  _232
REMARK  101  A    between atoms: _242  and  _244
REMARK  102  A    between atoms: _244  and  _245
REMARK  103  A    between atoms: _244  and  _247
REMARK  104  A    between atoms: _247  and  _248
REMARK  105  A    between atoms: _251  and  _253
REMARK  106  A    between atoms: _253  and  _254
REMARK  107  A    between atoms: _253  and  _256
REMARK  108  A    between atoms: _256  and  _257
REMARK  109  A    between atoms: _260  and  _262
REMARK  110  A    between atoms: _262  and  _263
REMARK  111  A    between atoms: _262  and  _265
REMARK  112  A    between atoms: _265  and  _266
REMARK  113  A    between atoms: _266  and  _267
REMARK  114  A    between atoms: _270  and  _272
REMARK  115  A    between atoms: _272  and  _273
REMARK  116  A    between atoms: _272  and  _275
REMARK  117  A    between atoms: _275  and  _276
REMARK  118  A    between atoms: _281  and  _282
REMARK  119  A    between atoms: _284  and  _286
REMARK  120  A    between atoms: _286  and  _287
REMARK  121  A    between atoms: _286  and  _289
REMARK  122  A    between atoms: _289  and  _290
REMARK  123  A    between atoms: _293  and  _294
REMARK  124  A    between atoms: _299  and  _301
REMARK  125  A    between atoms: _301  and  _302
REMARK  126  A    between atoms: _301  and  _304
REMARK  127  A    between atoms: _304  and  _305
REMARK  128  A    between atoms: _305  and  _306
REMARK  129  A    between atoms: _306  and  _307
REMARK  130  A    between atoms: _307  and  _308
REMARK  131  A    between atoms: _312  and  _314
REMARK  132  A    between atoms: _314  and  _315
REMARK  133  A    between atoms: _314  and  _317
REMARK  134  A    between atoms: _317  and  _318
REMARK  135  A    between atoms: _318  and  _319
REMARK  136  A    between atoms: _321  and  _323
REMARK  137  A    between atoms: _323  and  _324
REMARK  138  A    between atoms: _323  and  _326
REMARK  139  A    between atoms: _326  and  _327
REMARK  140  A    between atoms: _330  and  _332
REMARK  141  A    between atoms: _332  and  _333
REMARK  142  A    between atoms: _332  and  _335
REMARK  143  A    between atoms: _335  and  _336
REMARK  144  A    between atoms: _338  and  _340
REMARK  145  A    between atoms: _340  and  _341
REMARK  146  A    between atoms: _340  and  _343
REMARK  147  A    between atoms: _343  and  _344
REMARK  148  A    between atoms: _347  and  _349
REMARK  149  A    between atoms: _349  and  _350
REMARK  150  A    between atoms: _349  and  _352
REMARK  151  A    between atoms: _352  and  _353
REMARK  152  A    between atoms: _353  and  _354
REMARK  153  A    between atoms: _357  and  _359
REMARK  154  A    between atoms: _359  and  _360
REMARK  155  A    between atoms: _363  and  _364
REMARK  156  A    between atoms: _369  and  _371
REMARK  157  A    between atoms: _371  and  _372
REMARK  158  A    between atoms: _375  and  _377
REMARK  159  A    between atoms: _377  and  _378
REMARK  160  A    between atoms: _377  and  _380
REMARK  161  A    between atoms: _380  and  _381
REMARK  162  A    between atoms: _381  and  _382
REMARK  163  A    between atoms: _385  and  _387
REMARK  164  A    between atoms: _387  and  _388
REMARK  165  A    between atoms: _387  and  _390
REMARK  166  A    between atoms: _390  and  _391
REMARK  167  A    between atoms: _396  and  _398
REMARK  168  A    between atoms: _398  and  _399
REMARK  169  A    between atoms: _398  and  _401
REMARK  170  A    between atoms: _401  and  _402
REMARK  171  A    between atoms: _405  and  _407
REMARK  172  A    between atoms: _407  and  _408
REMARK  173  A    between atoms: _407  and  _410
REMARK  174  A    between atoms: _410  and  _411
REMARK  175  A    between atoms: _414  and  _416
REMARK  176  A    between atoms: _416  and  _417
REMARK  177  A    between atoms: _416  and  _419
REMARK  178  A    between atoms: _419  and  _420
REMARK  179  A    between atoms: _426  and  _428
REMARK  180  A    between atoms: _428  and  _429
REMARK  181  A    between atoms: _428  and  _431
REMARK  182  A    between atoms: _434  and  _436
REMARK  183  A    between atoms: _436  and  _437
REMARK  184  A    between atoms: _436  and  _439
REMARK  185  A    between atoms: _439  and  _440
REMARK  186  A    between atoms: _443  and  _445
REMARK  187  A    between atoms: _445  and  _446
REMARK  188  A    between atoms: _449  and  _451
REMARK  189  A    between atoms: _451  and  _452
REMARK  190  A    between atoms: _451  and  _454
REMARK  191  A    between atoms: _454  and  _455
REMARK  192  A    between atoms: _460  and  _462
REMARK  193  A    between atoms: _462  and  _463
REMARK  194  A    between atoms: _462  and  _465
REMARK  195  A    between atoms: _465  and  _466
REMARK  196  A    between atoms: _466  and  _467
REMARK  197  A    between atoms: _467  and  _468
REMARK  198  A    between atoms: _468  and  _469
REMARK  199  A    between atoms: _473  and  _475
REMARK  200  A    between atoms: _475  and  _476
REMARK  201  A    between atoms: _475  and  _478
REMARK  202  A    between atoms: _478  and  _479
REMARK  203  A    between atoms: _482  and  _484
REMARK  204  A    between atoms: _484  and  _485
REMARK  205  A    between atoms: _487  and  _489
REMARK  206  A    between atoms: _489  and  _490
REMARK  207  A    between atoms: _489  and  _492
REMARK  208  A    between atoms: _492  and  _493
REMARK  209  A    between atoms: _498  and  _499
REMARK  210  A    between atoms: _501  and  _503
REMARK  211  A    between atoms: _503  and  _504
REMARK  212  A    between atoms: _503  and  _506
REMARK  213  A    between atoms: _506  and  _507
REMARK  214  A    between atoms: _512  and  _513
REMARK  215  A    between atoms: _515  and  _517
REMARK  216  A    between atoms: _517  and  _518
REMARK  217  A    between atoms: _517  and  _520
REMARK  218  A    between atoms: _520  and  _521
REMARK  219  A    between atoms: _524  and  _526
REMARK  220  A    between atoms: _526  and  _527
REMARK  221  A    between atoms: _526  and  _529
REMARK  222  A    between atoms: _529  and  _530
REMARK  223  A    between atoms: _535  and  _537
REMARK  224  A    between atoms: _537  and  _538
REMARK  225  A    between atoms: _537  and  _540
REMARK  226  A    between atoms: _540  and  _541
REMARK  227  A    between atoms: _541  and  _542
REMARK  228  A    between atoms: _542  and  _543
REMARK  229  A    between atoms: _552  and  _554
REMARK  230  A    between atoms: _554  and  _555
REMARK  231  A    between atoms: _554  and  _557
REMARK  232  A    between atoms: _557  and  _558
REMARK  233  A    between atoms: _563  and  _564
REMARK  234  A    between atoms: _566  and  _568
REMARK  235  A    between atoms: _568  and  _569
REMARK  236  A    between atoms: _568  and  _571
REMARK  237  A    between atoms: _571  and  _572
REMARK                            x       y       z     vdW  Elec       q    Type
REMARK                         _______ _______ _______ _____ _____    ______ ____
ROOT
ATOM      1  C   ASP A   1      -4.286   1.503 -10.516  0.00  0.00    +0.239 C 
ATOM      2  N   ASN A   2      -5.504   1.523  -9.980  0.00  0.00    -0.298 N 
ATOM      3  H   ASN A   2      -5.767   2.327  -9.376  0.00  0.00    +0.150 HD
ATOM      4  O   ASP A   1      -3.833   0.556 -11.177  0.00  0.00    -0.274 OA
ENDROOT
BRANCH   1   5
ATOM      5  CA  ASP A   1      -3.446   2.747 -10.293  0.00  0.00    +0.156 C 
BRANCH   5   6
ATOM      6  N   ASP A   1      -2.024   2.445 -10.402  0.00  0.00    -0.238 NA
ATOM      7  H   ASP A   1      -1.592   2.443 -11.348  0.00  0.00    +0.142 HD
ENDBRANCH   5   6
BRANCH   5   8
ATOM      8  CB  ASP A   1      -3.841   3.815 -11.316  0.00  0.00    +0.140 C 
BRANCH   8   9
ATOM      9  CG  ASP A   1      -5.067   4.606 -10.900  0.00  0.00    +0.367 C 
ATOM     10  OD2 ASP A   1      -5.229   4.840  -9.683  0.00  0.00    -0.246 OA
ATOM     11  OD1 ASP A   1      -5.861   5.001 -11.789  0.00  0.00    -0.246 OA
ENDBRANCH   8   9
ENDBRANCH   5   8
ENDBRANCH   1   5
BRANCH   2  12
ATOM     12  CA  ASN A   2      -6.494   0.459 -10.204  0.00  0.00    +0.146 C 
BRANCH  12  13
ATOM     13  C   ASN A   2      -6.032  -0.936  -9.747  0.00  0.00    +0.227 C 
ATOM     14  O   ASN A   2      -6.416  -1.942 -10.333  0.00  0.00    -0.286 OA
ENDBRANCH  12  13
BRANCH  12  15
ATOM     15  CB  ASN A   2      -6.891   0.392 -11.690  0.00  0.00    +0.112 C 
BRANCH  15  16
ATOM     16  CG  ASN A   2      -7.533   1.679 -12.196  0.00  0.00    +0.222 C 
ATOM     17  ND2 ASN A   2      -8.819   1.853 -11.909  0.00  0.00    -0.329 N 
ATOM     18 HD21 ASN A   2      -9.330   1.135 -11.357  0.00  0.00    +0.145 HD
ATOM     19 HD22 ASN A   2      -9.314   2.707 -12.236  0.00  0.00    +0.145 HD
ATOM     20  OD1 ASN A   2      -6.882   2.499 -12.846  0.00  0.00    -0.275 OA
ENDBRANCH  15  16
ENDBRANCH  12  15
ENDBRANCH   2  12
TORSDOF 8
REMARK  Name = ../refined-set-2016/4ymg/4ymg_pocket.pdb
REMARK  237 active torsions:
REMARK  status: ('A' for Active; 'I' for Inactive)
REMARK    1  A    between atoms: _1  and  _3
REMARK    2  A    between atoms: _3  and  _4
REMARK    3  A    between atoms: _3  and  _6
REMARK    4  A    between atoms: _6  and  _7
REMARK    5  A    between atoms: _12  and  _14
REMARK    6  A    between atoms: _14  and  _15
REMARK    7  A    between atoms: _14  and  _17
REMARK    8  A    between atoms: _17  and  _18
REMARK    9  A    between atoms: _28  and  _30
REMARK   10  A    between atoms: _30  and  _31
REMARK   11  A    between atoms: _30  and  _33
REMARK   12  A    between atoms: _33  and  _34
REMARK   13  A    between atoms: _37  and  _39
REMARK   14  A    between atoms: _39  and  _40
REMARK   15  A    between atoms: _39  and  _42
REMARK   16  A    between atoms: _42  and  _43
REMARK   17  A    between atoms: _46  and  _48
REMARK   18  A    between atoms: _48  and  _49
REMARK   19  A    between atoms: _52  and  _54
REMARK   20  A    between atoms: _54  and  _55
REMARK   21  A    between atoms: _54  and  _57
REMARK   22  A    between atoms: _57  and  _58
REMARK   23  A    between atoms: _61  and  _63
REMARK   24  A    between atoms: _63  and  _64
REMARK   25  A    between atoms: _63  and  _66
REMARK   26  A    between atoms: _66  and  _67
REMARK   27  A    between atoms: _67  and  _68
REMARK   28  A    between atoms: _68  and  _69
REMARK   29  A    between atoms: _69  and  _70
REMARK   30  A    between atoms: _74  and  _76
REMARK   31  A    between atoms: _76  and  _77
REMARK   32  A    between atoms: _76  and  _79
REMARK   33  A    between atoms: _79  and  _80
REMARK   34  A    between atoms: _80  and  _81
REMARK   35  A    between atoms: _83  and  _85
REMARK   36  A    between atoms: _85  and  _86
REMARK   37  A    between atoms: _85  and  _88
REMARK   38  A    between atoms: _88  and  _89
REMARK   39  A    between atoms: _91  and  _93
REMARK   40  A    between atoms: _93  and  _94
REMARK   41  A    between atoms: _93  and  _96
REMARK   42  A    between atoms: _96  and  _97
REMARK   43  A    between atoms: _99  and  _101
REMARK   44  A    between atoms: _101  and  _102
REMARK   45  A    between atoms: _101  and  _104
REMARK   46  A    between atoms: _104  and  _105
REMARK   47  A    between atoms: _105  and  _106
REMARK   48  A    between atoms: _111  and  _113
REMARK   49  A    between atoms: _113  and  _114
REMARK   50  A    between atoms: _116  and  _118
REMARK   51  A    between atoms: _118  and  _119
REMARK   52  A    between atoms: _118  and  _121
REMARK   53  A    between atoms: _121  and  _122
REMARK   54  A    between atoms: _122  and  _123
REMARK   55  A    between atoms: _125  and  _127
REMARK   56  A    between atoms: _127  and  _128
REMARK   57  A    between atoms: _127  and  _130
REMARK   58  A    between atoms: _130  and  _131
REMARK   59  A    between atoms: _131  and  _132
REMARK   60  A    between atoms: _135  and  _137
REMARK   61  A    between atoms: _137  and  _138
REMARK   62  A    between atoms: _137  and  _140
REMARK   63  A    between atoms: _140  and  _141
REMARK   64  A    between atoms: _144  and  _146
REMARK   65  A    between atoms: _146  and  _147
REMARK   66  A    between atoms: _149  and  _151
REMARK   67  A    between atoms: _151  and  _152
REMARK   68  A    between atoms: _151  and  _154
REMARK   69  A    between atoms: _156  and  _158
REMARK   70  A    between atoms: _158  and  _159
REMARK   71  A    between atoms: _158  and  _161
REMARK   72  A    between atoms: _161  and  _162
REMARK   73  A    between atoms: _167  and  _168
REMARK   74  A    between atoms: _170  and  _172
REMARK   75  A    between atoms: _172  and  _173
REMARK   76  A    between atoms: _172  and  _175
REMARK   77  A    between atoms: _175  and  _176
REMARK   78  A    between atoms: _178  and  _180
REMARK   79  A    between atoms: _180  and  _181
REMARK   80  A    between atoms: _183  and  _185
REMARK   81  A    between atoms: _185  and  _186
REMARK   82  A    between atoms: _185  and  _188
REMARK   83  A    between atoms: _188  and  _189
REMARK   84  A    between atoms: _194  and  _195
REMARK   85  A    between atoms: _197  and  _199
REMARK   86  A    between atoms: _199  and  _200
REMARK   87  A    between atoms: _199  and  _202
REMARK   88  A    between atoms: _202  and  _203
REMARK   89  A    between atoms: _205  and  _207
REMARK   90  A    between atoms: _207  and  _208
REMARK   91  A    between atoms: _211  and  _213
REMARK   92  A    between atoms: _213  and  _214
REMARK   93  A    between atoms: _213  and  _216
REMARK   94  A    between atoms: _216  and  _217
REMARK   95  A    between atoms: _220  and  _222
REMARK   96  A    between atoms: _222  and  _223
REMARK   97  A    between atoms: _226  and  _228
REMARK   98  A    between atoms: _228  and  _229
REMARK   99  A    between atoms: _228  and  _231
REMARK  100  A    between atoms: _231  and  _232
REMARK  101  A    between atoms: _242  and  _244
REMARK  102  A    between atoms: _244  and  _245
REMARK  103  A    between atoms: _244  and  _247
REMARK  104  A    between atoms: _247  and  _248
REMARK  105  A    between atoms: _251  and  _253
REMARK  106  A    between atoms: _253  and  _254
REMARK  107  A    between atoms: _253  and  _256
REMARK  108  A    between atoms: _256  and  _257
REMARK  109  A    between atoms: _260  and  _262
REMARK  110  A    between atoms: _262  and  _263
REMARK  111  A    between atoms: _262  and  _265
REMARK  112  A    between atoms: _265  and  _266
REMARK  113  A    between atoms: _266  and  _267
REMARK  114  A    between atoms: _270  and  _272
REMARK  115  A    between atoms: _272  and  _273
REMARK  116  A    between atoms: _272  and  _275
REMARK  117  A    between atoms: _275  and  _276
REMARK  118  A    between atoms: _281  and  _282
REMARK  119  A    between atoms: _284  and  _286
REMARK  120  A    between atoms: _286  and  _287
REMARK  121  A    between atoms: _286  and  _289
REMARK  122  A    between atoms: _289  and  _290
REMARK  123  A    between atoms: _293  and  _294
REMARK  124  A    between atoms: _299  and  _301
REMARK  125  A    between atoms: _301  and  _302
REMARK  126  A    between atoms: _301  and  _304
REMARK  127  A    between atoms: _304  and  _305
REMARK  128  A    between atoms: _305  and  _306
REMARK  129  A    between atoms: _306  and  _307
REMARK  130  A    between atoms: _307  and  _308
REMARK  131  A    between atoms: _312  and  _314
REMARK  132  A    between atoms: _314  and  _315
REMARK  133  A    between atoms: _314  and  _317
REMARK  134  A    between atoms: _317  and  _318
REMARK  135  A    between atoms: _318  and  _319
REMARK  136  A    between atoms: _321  and  _323
REMARK  137  A    between atoms: _323  and  _324
REMARK  138  A    between atoms: _323  and  _326
REMARK  139  A    between atoms: _326  and  _327
REMARK  140  A    between atoms: _330  and  _332
REMARK  141  A    between atoms: _332  and  _333
REMARK  142  A    between atoms: _332  and  _335
REMARK  143  A    between atoms: _335  and  _336
REMARK  144  A    between atoms: _338  and  _340
REMARK  145  A    between atoms: _340  and  _341
REMARK  146  A    between atoms: _340  and  _343
REMARK  147  A    between atoms: _343  and  _344
REMARK  148  A    between atoms: _347  and  _349
REMARK  149  A    between atoms: _349  and  _350
REMARK  150  A    between atoms: _349  and  _352
REMARK  151  A    between atoms: _352  and  _353
REMARK  152  A    between atoms: _353  and  _354
REMARK  153  A    between atoms: _357  and  _359
REMARK  154  A    between atoms: _359  and  _360
REMARK  155  A    between atoms: _363  and  _364
REMARK  156  A    between atoms: _369  and  _371
REMARK  157  A    between atoms: _371  and  _372
REMARK  158  A    between atoms: _375  and  _377
REMARK  159  A    between atoms: _377  and  _378
REMARK  160  A    between atoms: _377  and  _380
REMARK  161  A    between atoms: _380  and  _381
REMARK  162  A    between atoms: _381  and  _382
REMARK  163  A    between atoms: _385  and  _387
REMARK  164  A    between atoms: _387  and  _388
REMARK  165  A    between atoms: _387  and  _390
REMARK  166  A    between atoms: _390  and  _391
REMARK  167  A    between atoms: _396  and  _398
REMARK  168  A    between atoms: _398  and  _399
REMARK  169  A    between atoms: _398  and  _401
REMARK  170  A    between atoms: _401  and  _402
REMARK  171  A    between atoms: _405  and  _407
REMARK  172  A    between atoms: _407  and  _408
REMARK  173  A    between atoms: _407  and  _410
REMARK  174  A    between atoms: _410  and  _411
REMARK  175  A    between atoms: _414  and  _416
REMARK  176  A    between atoms: _416  and  _417
REMARK  177  A    between atoms: _416  and  _419
REMARK  178  A    between atoms: _419  and  _420
REMARK  179  A    between atoms: _426  and  _428
REMARK  180  A    between atoms: _428  and  _429
REMARK  181  A    between atoms: _428  and  _431
REMARK  182  A    between atoms: _434  and  _436
REMARK  183  A    between atoms: _436  and  _437
REMARK  184  A    between atoms: _436  and  _439
REMARK  185  A    between atoms: _439  and  _440
REMARK  186  A    between atoms: _443  and  _445
REMARK  187  A    between atoms: _445  and  _446
REMARK  188  A    between atoms: _449  and  _451
REMARK  189  A    between atoms: _451  and  _452
REMARK  190  A    between atoms: _451  and  _454
REMARK  191  A    between atoms: _454  and  _455
REMARK  192  A    between atoms: _460  and  _462
REMARK  193  A    between atoms: _462  and  _463
REMARK  194  A    between atoms: _462  and  _465
REMARK  195  A    between atoms: _465  and  _466
REMARK  196  A    between atoms: _466  and  _467
REMARK  197  A    between atoms: _467  and  _468
REMARK  198  A    between atoms: _468  and  _469
REMARK  199  A    between atoms: _473  and  _475
REMARK  200  A    between atoms: _475  and  _476
REMARK  201  A    between atoms: _475  and  _478
REMARK  202  A    between atoms: _478  and  _479
REMARK  203  A    between atoms: _482  and  _484
REMARK  204  A    between atoms: _484  and  _485
REMARK  205  A    between atoms: _487  and  _489
REMARK  206  A    between atoms: _489  and  _490
REMARK  207  A    between atoms: _489  and  _492
REMARK  208  A    between atoms: _492  and  _493
REMARK  209  A    between atoms: _498  and  _499
REMARK  210  A    between atoms: _501  and  _503
REMARK  211  A    between atoms: _503  and  _504
REMARK  212  A    between atoms: _503  and  _506
REMARK  213  A    between atoms: _506  and  _507
REMARK  214  A    between atoms: _512  and  _513
REMARK  215  A    between atoms: _515  and  _517
REMARK  216  A    between atoms: _517  and  _518
REMARK  217  A    between atoms: _517  and  _520
REMARK  218  A    between atoms: _520  and  _521
REMARK  219  A    between atoms: _524  and  _526
REMARK  220  A    between atoms: _526  and  _527
REMARK  221  A    between atoms: _526  and  _529
REMARK  222  A    between atoms: _529  and  _530
REMARK  223  A    between atoms: _535  and  _537
REMARK  224  A    between atoms: _537  and  _538
REMARK  225  A    between atoms: _537  and  _540
REMARK  226  A    between atoms: _540  and  _541
REMARK  227  A    between atoms: _541  and  _542
REMARK  228  A    between atoms: _542  and  _543
REMARK  229  A    between atoms: _552  and  _554
REMARK  230  A    between atoms: _554  and  _555
REMARK  231  A    between atoms: _554  and  _557
REMARK  232  A    between atoms: _557  and  _558
REMARK  233  A    between atoms: _563  and  _564
REMARK  234  A    between atoms: _566  and  _568
REMARK  235  A    between atoms: _568  and  _569
REMARK  236  A    between atoms: _568  and  _571
REMARK  237  A    between atoms: _571  and  _572
REMARK                            x       y       z     vdW  Elec       q    Type
REMARK                         _______ _______ _______ _____ _____    ______ ____
ROOT
ATOM      1  NE  ARG A   1     -14.181  -0.206 -11.712  0.00  0.00    -0.265 N 
ATOM      2  HE  ARG A   1     -15.105  -0.351 -12.167  0.00  0.00    +0.259 HD
ATOM      3  CZ  ARG A   1     -13.342   0.647 -12.285  0.00  0.00    +0.342 C 
ATOM      4  NH2 ARG A   1     -12.157   0.898 -11.741  0.00  0.00    -0.292 N 
ATOM      5 HH21 ARG A   1     -11.879   0.424 -10.858  0.00  0.00    +0.255 HD
ATOM      6 HH22 ARG A   1     -11.506   1.568 -12.198  0.00  0.00    +0.255 HD
ATOM      7  NH1 ARG A   1     -13.703   1.262 -13.402  0.00  0.00    -0.292 N 
ATOM      8 HH11 ARG A   1     -14.636   1.074 -13.821  0.00  0.00    +0.255 HD
ATOM      9 HH12 ARG A   1     -13.053   1.933 -13.860  0.00  0.00    +0.255 HD
ENDROOT
BRANCH   1  10
ATOM     10  CD  ARG A   1     -13.905  -0.955 -10.492  0.00  0.00    +0.174 C 
BRANCH  10  11
ATOM     11  CG  ARG A   1     -13.770  -2.437 -10.779  0.00  0.00    +0.045 C 
BRANCH  11  12
ATOM     12  CB  ARG A   1     -13.953  -3.267  -9.520  0.00  0.00    +0.029 C 
BRANCH  12  13
ATOM     13  CA  ARG A   1     -12.899  -2.990  -8.446  0.00  0.00    +0.133 C 
BRANCH  13  14
ATOM     14  N   ARG A   1     -11.544  -3.168  -8.984  0.00  0.00    -0.239 NA
ATOM     15  H   ARG A   1     -10.907  -2.346  -8.964  0.00  0.00    +0.142 HD
ENDBRANCH  13  14
BRANCH  13  16
ATOM     16  C   ARG A   1     -13.159  -3.866  -7.225  0.00  0.00    +0.224 C 
ATOM     17  O   ARG A   1     -14.298  -3.974  -6.763  0.00  0.00    -0.287 OA
ENDBRANCH  13  16
ENDBRANCH  12  13
ENDBRANCH  11  12
ENDBRANCH  10  11
ENDBRANCH   1  10
TORSDOF 6
REMARK  Name = ../refined-set-2016/4ymg/4ymg_pocket.pdb
REMARK  237 active torsions:
REMARK  status: ('A' for Active; 'I' for Inactive)
REMARK    1  A    between atoms: _1  and  _3
REMARK    2  A    between atoms: _3  and  _4
REMARK    3  A    between atoms: _3  and  _6
REMARK    4  A    between atoms: _6  and  _7
REMARK    5  A    between atoms: _12  and  _14
REMARK    6  A    between atoms: _14  and  _15
REMARK    7  A    between atoms: _14  and  _17
REMARK    8  A    between atoms: _17  and  _18
REMARK    9  A    between atoms: _28  and  _30
REMARK   10  A    between atoms: _30  and  _31
REMARK   11  A    between atoms: _30  and  _33
REMARK   12  A    between atoms: _33  and  _34
REMARK   13  A    between atoms: _37  and  _39
REMARK   14  A    between atoms: _39  and  _40
REMARK   15  A    between atoms: _39  and  _42
REMARK   16  A    between atoms: _42  and  _43
REMARK   17  A    between atoms: _46  and  _48
REMARK   18  A    between atoms: _48  and  _49
REMARK   19  A    between atoms: _52  and  _54
REMARK   20  A    between atoms: _54  and  _55
REMARK   21  A    between atoms: _54  and  _57
REMARK   22  A    between atoms: _57  and  _58
REMARK   23  A    between atoms: _61  and  _63
REMARK   24  A    between atoms: _63  and  _64
REMARK   25  A    between atoms: _63  and  _66
REMARK   26  A    between atoms: _66  and  _67
REMARK   27  A    between atoms: _67  and  _68
REMARK   28  A    between atoms: _68  and  _69
REMARK   29  A    between atoms: _69  and  _70
REMARK   30  A    between atoms: _74  and  _76
REMARK   31  A    between atoms: _76  and  _77
REMARK   32  A    between atoms: _76  and  _79
REMARK   33  A    between atoms: _79  and  _80
REMARK   34  A    between atoms: _80  and  _81
REMARK   35  A    between atoms: _83  and  _85
REMARK   36  A    between atoms: _85  and  _86
REMARK   37  A    between atoms: _85  and  _88
REMARK   38  A    between atoms: _88  and  _89
REMARK   39  A    between atoms: _91  and  _93
REMARK   40  A    between atoms: _93  and  _94
REMARK   41  A    between atoms: _93  and  _96
REMARK   42  A    between atoms: _96  and  _97
REMARK   43  A    between atoms: _99  and  _101
REMARK   44  A    between atoms: _101  and  _102
REMARK   45  A    between atoms: _101  and  _104
REMARK   46  A    between atoms: _104  and  _105
REMARK   47  A    between atoms: _105  and  _106
REMARK   48  A    between atoms: _111  and  _113
REMARK   49  A    between atoms: _113  and  _114
REMARK   50  A    between atoms: _116  and  _118
REMARK   51  A    between atoms: _118  and  _119
REMARK   52  A    between atoms: _118  and  _121
REMARK   53  A    between atoms: _121  and  _122
REMARK   54  A    between atoms: _122  and  _123
REMARK   55  A    between atoms: _125  and  _127
REMARK   56  A    between atoms: _127  and  _128
REMARK   57  A    between atoms: _127  and  _130
REMARK   58  A    between atoms: _130  and  _131
REMARK   59  A    between atoms: _131  and  _132
REMARK   60  A    between atoms: _135  and  _137
REMARK   61  A    between atoms: _137  and  _138
REMARK   62  A    between atoms: _137  and  _140
REMARK   63  A    between atoms: _140  and  _141
REMARK   64  A    between atoms: _144  and  _146
REMARK   65  A    between atoms: _146  and  _147
REMARK   66  A    between atoms: _149  and  _151
REMARK   67  A    between atoms: _151  and  _152
REMARK   68  A    between atoms: _151  and  _154
REMARK   69  A    between atoms: _156  and  _158
REMARK   70  A    between atoms: _158  and  _159
REMARK   71  A    between atoms: _158  and  _161
REMARK   72  A    between atoms: _161  and  _162
REMARK   73  A    between atoms: _167  and  _168
REMARK   74  A    between atoms: _170  and  _172
REMARK   75  A    between atoms: _172  and  _173
REMARK   76  A    between atoms: _172  and  _175
REMARK   77  A    between atoms: _175  and  _176
REMARK   78  A    between atoms: _178  and  _180
REMARK   79  A    between atoms: _180  and  _181
REMARK   80  A    between atoms: _183  and  _185
REMARK   81  A    between atoms: _185  and  _186
REMARK   82  A    between atoms: _185  and  _188
REMARK   83  A    between atoms: _188  and  _189
REMARK   84  A    between atoms: _194  and  _195
REMARK   85  A    between atoms: _197  and  _199
REMARK   86  A    between atoms: _199  and  _200
REMARK   87  A    between atoms: _199  and  _202
REMARK   88  A    between atoms: _202  and  _203
REMARK   89  A    between atoms: _205  and  _207
REMARK   90  A    between atoms: _207  and  _208
REMARK   91  A    between atoms: _211  and  _213
REMARK   92  A    between atoms: _213  and  _214
REMARK   93  A    between atoms: _213  and  _216
REMARK   94  A    between atoms: _216  and  _217
REMARK   95  A    between atoms: _220  and  _222
REMARK   96  A    between atoms: _222  and  _223
REMARK   97  A    between atoms: _226  and  _228
REMARK   98  A    between atoms: _228  and  _229
REMARK   99  A    between atoms: _228  and  _231
REMARK  100  A    between atoms: _231  and  _232
REMARK  101  A    between atoms: _242  and  _244
REMARK  102  A    between atoms: _244  and  _245
REMARK  103  A    between atoms: _244  and  _247
REMARK  104  A    between atoms: _247  and  _248
REMARK  105  A    between atoms: _251  and  _253
REMARK  106  A    between atoms: _253  and  _254
REMARK  107  A    between atoms: _253  and  _256
REMARK  108  A    between atoms: _256  and  _257
REMARK  109  A    between atoms: _260  and  _262
REMARK  110  A    between atoms: _262  and  _263
REMARK  111  A    between atoms: _262  and  _265
REMARK  112  A    between atoms: _265  and  _266
REMARK  113  A    between atoms: _266  and  _267
REMARK  114  A    between atoms: _270  and  _272
REMARK  115  A    between atoms: _272  and  _273
REMARK  116  A    between atoms: _272  and  _275
REMARK  117  A    between atoms: _275  and  _276
REMARK  118  A    between atoms: _281  and  _282
REMARK  119  A    between atoms: _284  and  _286
REMARK  120  A    between atoms: _286  and  _287
REMARK  121  A    between atoms: _286  and  _289
REMARK  122  A    between atoms: _289  and  _290
REMARK  123  A    between atoms: _293  and  _294
REMARK  124  A    between atoms: _299  and  _301
REMARK  125  A    between atoms: _301  and  _302
REMARK  126  A    between atoms: _301  and  _304
REMARK  127  A    between atoms: _304  and  _305
REMARK  128  A    between atoms: _305  and  _306
REMARK  129  A    between atoms: _306  and  _307
REMARK  130  A    between atoms: _307  and  _308
REMARK  131  A    between atoms: _312  and  _314
REMARK  132  A    between atoms: _314  and  _315
REMARK  133  A    between atoms: _314  and  _317
REMARK  134  A    between atoms: _317  and  _318
REMARK  135  A    between atoms: _318  and  _319
REMARK  136  A    between atoms: _321  and  _323
REMARK  137  A    between atoms: _323  and  _324
REMARK  138  A    between atoms: _323  and  _326
REMARK  139  A    between atoms: _326  and  _327
REMARK  140  A    between atoms: _330  and  _332
REMARK  141  A    between atoms: _332  and  _333
REMARK  142  A    between atoms: _332  and  _335
REMARK  143  A    between atoms: _335  and  _336
REMARK  144  A    between atoms: _338  and  _340
REMARK  145  A    between atoms: _340  and  _341
REMARK  146  A    between atoms: _340  and  _343
REMARK  147  A    between atoms: _343  and  _344
REMARK  148  A    between atoms: _347  and  _349
REMARK  149  A    between atoms: _349  and  _350
REMARK  150  A    between atoms: _349  and  _352
REMARK  151  A    between atoms: _352  and  _353
REMARK  152  A    between atoms: _353  and  _354
REMARK  153  A    between atoms: _357  and  _359
REMARK  154  A    between atoms: _359  and  _360
REMARK  155  A    between atoms: _363  and  _364
REMARK  156  A    between atoms: _369  and  _371
REMARK  157  A    between atoms: _371  and  _372
REMARK  158  A    between atoms: _375  and  _377
REMARK  159  A    between atoms: _377  and  _378
REMARK  160  A    between atoms: _377  and  _380
REMARK  161  A    between atoms: _380  and  _381
REMARK  162  A    between atoms: _381  and  _382
REMARK  163  A    between atoms: _385  and  _387
REMARK  164  A    between atoms: _387  and  _388
REMARK  165  A    between atoms: _387  and  _390
REMARK  166  A    between atoms: _390  and  _391
REMARK  167  A    between atoms: _396  and  _398
REMARK  168  A    between atoms: _398  and  _399
REMARK  169  A    between atoms: _398  and  _401
REMARK  170  A    between atoms: _401  and  _402
REMARK  171  A    between atoms: _405  and  _407
REMARK  172  A    between atoms: _407  and  _408
REMARK  173  A    between atoms: _407  and  _410
REMARK  174  A    between atoms: _410  and  _411
REMARK  175  A    between atoms: _414  and  _416
REMARK  176  A    between atoms: _416  and  _417
REMARK  177  A    between atoms: _416  and  _419
REMARK  178  A    between atoms: _419  and  _420
REMARK  179  A    between atoms: _426  and  _428
REMARK  180  A    between atoms: _428  and  _429
REMARK  181  A    between atoms: _428  and  _431
REMARK  182  A    between atoms: _434  and  _436
REMARK  183  A    between atoms: _436  and  _437
REMARK  184  A    between atoms: _436  and  _439
REMARK  185  A    between atoms: _439  and  _440
REMARK  186  A    between atoms: _443  and  _445
REMARK  187  A    between atoms: _445  and  _446
REMARK  188  A    between atoms: _449  and  _451
REMARK  189  A    between atoms: _451  and  _452
REMARK  190  A    between atoms: _451  and  _454
REMARK  191  A    between atoms: _454  and  _455
REMARK  192  A    between atoms: _460  and  _462
REMARK  193  A    between atoms: _462  and  _463
REMARK  194  A    between atoms: _462  and  _465
REMARK  195  A    between atoms: _465  and  _466
REMARK  196  A    between atoms: _466  and  _467
REMARK  197  A    between atoms: _467  and  _468
REMARK  198  A    between atoms: _468  and  _469
REMARK  199  A    between atoms: _473  and  _475
REMARK  200  A    between atoms: _475  and  _476
REMARK  201  A    between atoms: _475  and  _478
REMARK  202  A    between atoms: _478  and  _479
REMARK  203  A    between atoms: _482  and  _484
REMARK  204  A    between atoms: _484  and  _485
REMARK  205  A    between atoms: _487  and  _489
REMARK  206  A    between atoms: _489  and  _490
REMARK  207  A    between atoms: _489  and  _492
REMARK  208  A    between atoms: _492  and  _493
REMARK  209  A    between atoms: _498  and  _499
REMARK  210  A    between atoms: _501  and  _503
REMARK  211  A    between atoms: _503  and  _504
REMARK  212  A    between atoms: _503  and  _506
REMARK  213  A    between atoms: _506  and  _507
REMARK  214  A    between atoms: _512  and  _513
REMARK  215  A    between atoms: _515  and  _517
REMARK  216  A    between atoms: _517  and  _518
REMARK  217  A    between atoms: _517  and  _520
REMARK  218  A    between atoms: _520  and  _521
REMARK  219  A    between atoms: _524  and  _526
REMARK  220  A    between atoms: _526  and  _527
REMARK  221  A    between atoms: _526  and  _529
REMARK  222  A    between atoms: _529  and  _530
REMARK  223  A    between atoms: _535  and  _537
REMARK  224  A    between atoms: _537  and  _538
REMARK  225  A    between atoms: _537  and  _540
REMARK  226  A    between atoms: _540  and  _541
REMARK  227  A    between atoms: _541  and  _542
REMARK  228  A    between atoms: _542  and  _543
REMARK  229  A    between atoms: _552  and  _554
REMARK  230  A    between atoms: _554  and  _555
REMARK  231  A    between atoms: _554  and  _557
REMARK  232  A    between atoms: _557  and  _558
REMARK  233  A    between atoms: _563  and  _564
REMARK  234  A    between atoms: _566  and  _568
REMARK  235  A    between atoms: _568  and  _569
REMARK  236  A    between atoms: _568  and  _571
REMARK  237  A    between atoms: _571  and  _572
REMARK                            x       y       z     vdW  Elec       q    Type
REMARK                         _______ _______ _______ _____ _____    ______ ____
ROOT
ATOM      1  C   TYR A   1     -11.821  -7.984 -16.268  0.00  0.00    +0.239 C 
ATOM      2  N   TRP A   2     -12.621  -7.579 -15.295  0.00  0.00    -0.298 N 
ATOM      3  H   TRP A   2     -13.649  -7.532 -15.444  0.00  0.00    +0.150 HD
ATOM      4  O   TYR A   1     -10.601  -8.090 -16.109  0.00  0.00    -0.274 OA
ENDROOT
BRANCH   1   5
ATOM      5  CA  TYR A   1     -12.482  -8.273 -17.628  0.00  0.00    +0.149 C 
BRANCH   5   6
ATOM      6  N   TYR A   1     -13.632  -9.165 -17.506  0.00  0.00    -0.238 NA
ATOM      7  H   TYR A   1     -14.572  -8.839 -17.808  0.00  0.00    +0.142 HD
ENDBRANCH   5   6
BRANCH   5   8
ATOM      8  CB  TYR A   1     -12.905  -6.951 -18.276  0.00  0.00    +0.053 C 
BRANCH   8   9
ATOM      9  CG  TYR A   1     -11.816  -5.885 -18.245  0.00  0.00    -0.020 A 
ATOM     10  CD2 TYR A   1     -11.770  -4.920 -17.238  0.00  0.00    -0.001 A 
ATOM     11  CE2 TYR A   1     -10.772  -3.944 -17.220  0.00  0.00    +0.036 A 
ATOM     12  CZ  TYR A   1      -9.821  -3.930 -18.229  0.00  0.00    +0.134 A 
ATOM     13  CE1 TYR A   1      -9.861  -4.866 -19.238  0.00  0.00    +0.036 A 
ATOM     14  CD1 TYR A   1     -10.853  -5.835 -19.240  0.00  0.00    -0.001 A 
BRANCH  12  15
ATOM     15  OH  TYR A   1      -8.833  -2.982 -18.241  0.00  0.00    -0.506 OA
ATOM     16  HH  TYR A   1      -9.242  -2.082 -18.291  0.00  0.00    +0.292 HD
ENDBRANCH  12  15
ENDBRANCH   8   9
ENDBRANCH   5   8
ENDBRANCH   1   5
BRANCH   2  17
ATOM     17  CA  TRP A   2     -12.041  -7.198 -14.007  0.00  0.00    +0.141 C 
BRANCH  17  18
ATOM     18  C   TRP A   2     -11.544  -8.416 -13.237  0.00  0.00    +0.227 C 
ATOM     19  O   TRP A   2     -10.618  -8.323 -12.437  0.00  0.00    -0.286 OA
ENDBRANCH  17  18
BRANCH  17  20
ATOM     20  CB  TRP A   2     -13.050  -6.417 -13.178  0.00  0.00    +0.056 C 
BRANCH  20  21
ATOM     21  CG  TRP A   2     -13.265  -5.027 -13.715  0.00  0.00    -0.002 A 
ATOM     22  CD2 TRP A   2     -12.309  -3.957 -13.725  0.00  0.00    +0.013 A 
ATOM     23  CE3 TRP A   2     -10.992  -3.830 -13.277  0.00  0.00    +0.001 A 
ATOM     24  CZ3 TRP A   2     -10.343  -2.598 -13.441  0.00  0.00    +0.000 A 
ATOM     25  CH2 TRP A   2     -10.993  -1.515 -14.045  0.00  0.00    +0.001 A 
ATOM     26  CZ2 TRP A   2     -12.284  -1.615 -14.495  0.00  0.00    +0.017 A 
ATOM     27  CE2 TRP A   2     -12.936  -2.840 -14.327  0.00  0.00    +0.056 A 
ATOM     28  NE1 TRP A   2     -14.206  -3.220 -14.673  0.00  0.00    -0.352 N 
ATOM     29  HE1 TRP A   2     -14.915  -2.613 -15.133  0.00  0.00    +0.166 HD
ATOM     30  CD1 TRP A   2     -14.392  -4.537 -14.313  0.00  0.00    +0.068 A 
ENDBRANCH  20  21
ENDBRANCH  17  20
ENDBRANCH   2  17
TORSDOF 9
REMARK  Name = ../refined-set-2016/4ymg/4ymg_pocket.pdb
REMARK  237 active torsions:
REMARK  status: ('A' for Active; 'I' for Inactive)
REMARK    1  A    between atoms: _1  and  _3
REMARK    2  A    between atoms: _3  and  _4
REMARK    3  A    between atoms: _3  and  _6
REMARK    4  A    between atoms: _6  and  _7
REMARK    5  A    between atoms: _12  and  _14
REMARK    6  A    between atoms: _14  and  _15
REMARK    7  A    between atoms: _14  and  _17
REMARK    8  A    between atoms: _17  and  _18
REMARK    9  A    between atoms: _28  and  _30
REMARK   10  A    between atoms: _30  and  _31
REMARK   11  A    between atoms: _30  and  _33
REMARK   12  A    between atoms: _33  and  _34
REMARK   13  A    between atoms: _37  and  _39
REMARK   14  A    between atoms: _39  and  _40
REMARK   15  A    between atoms: _39  and  _42
REMARK   16  A    between atoms: _42  and  _43
REMARK   17  A    between atoms: _46  and  _48
REMARK   18  A    between atoms: _48  and  _49
REMARK   19  A    between atoms: _52  and  _54
REMARK   20  A    between atoms: _54  and  _55
REMARK   21  A    between atoms: _54  and  _57
REMARK   22  A    between atoms: _57  and  _58
REMARK   23  A    between atoms: _61  and  _63
REMARK   24  A    between atoms: _63  and  _64
REMARK   25  A    between atoms: _63  and  _66
REMARK   26  A    between atoms: _66  and  _67
REMARK   27  A    between atoms: _67  and  _68
REMARK   28  A    between atoms: _68  and  _69
REMARK   29  A    between atoms: _69  and  _70
REMARK   30  A    between atoms: _74  and  _76
REMARK   31  A    between atoms: _76  and  _77
REMARK   32  A    between atoms: _76  and  _79
REMARK   33  A    between atoms: _79  and  _80
REMARK   34  A    between atoms: _80  and  _81
REMARK   35  A    between atoms: _83  and  _85
REMARK   36  A    between atoms: _85  and  _86
REMARK   37  A    between atoms: _85  and  _88
REMARK   38  A    between atoms: _88  and  _89
REMARK   39  A    between atoms: _91  and  _93
REMARK   40  A    between atoms: _93  and  _94
REMARK   41  A    between atoms: _93  and  _96
REMARK   42  A    between atoms: _96  and  _97
REMARK   43  A    between atoms: _99  and  _101
REMARK   44  A    between atoms: _101  and  _102
REMARK   45  A    between atoms: _101  and  _104
REMARK   46  A    between atoms: _104  and  _105
REMARK   47  A    between atoms: _105  and  _106
REMARK   48  A    between atoms: _111  and  _113
REMARK   49  A    between atoms: _113  and  _114
REMARK   50  A    between atoms: _116  and  _118
REMARK   51  A    between atoms: _118  and  _119
REMARK   52  A    between atoms: _118  and  _121
REMARK   53  A    between atoms: _121  and  _122
REMARK   54  A    between atoms: _122  and  _123
REMARK   55  A    between atoms: _125  and  _127
REMARK   56  A    between atoms: _127  and  _128
REMARK   57  A    between atoms: _127  and  _130
REMARK   58  A    between atoms: _130  and  _131
REMARK   59  A    between atoms: _131  and  _132
REMARK   60  A    between atoms: _135  and  _137
REMARK   61  A    between atoms: _137  and  _138
REMARK   62  A    between atoms: _137  and  _140
REMARK   63  A    between atoms: _140  and  _141
REMARK   64  A    between atoms: _144  and  _146
REMARK   65  A    between atoms: _146  and  _147
REMARK   66  A    between atoms: _149  and  _151
REMARK   67  A    between atoms: _151  and  _152
REMARK   68  A    between atoms: _151  and  _154
REMARK   69  A    between atoms: _156  and  _158
REMARK   70  A    between atoms: _158  and  _159
REMARK   71  A    between atoms: _158  and  _161
REMARK   72  A    between atoms: _161  and  _162
REMARK   73  A    between atoms: _167  and  _168
REMARK   74  A    between atoms: _170  and  _172
REMARK   75  A    between atoms: _172  and  _173
REMARK   76  A    between atoms: _172  and  _175
REMARK   77  A    between atoms: _175  and  _176
REMARK   78  A    between atoms: _178  and  _180
REMARK   79  A    between atoms: _180  and  _181
REMARK   80  A    between atoms: _183  and  _185
REMARK   81  A    between atoms: _185  and  _186
REMARK   82  A    between atoms: _185  and  _188
REMARK   83  A    between atoms: _188  and  _189
REMARK   84  A    between atoms: _194  and  _195
REMARK   85  A    between atoms: _197  and  _199
REMARK   86  A    between atoms: _199  and  _200
REMARK   87  A    between atoms: _199  and  _202
REMARK   88  A    between atoms: _202  and  _203
REMARK   89  A    between atoms: _205  and  _207
REMARK   90  A    between atoms: _207  and  _208
REMARK   91  A    between atoms: _211  and  _213
REMARK   92  A    between atoms: _213  and  _214
REMARK   93  A    between atoms: _213  and  _216
REMARK   94  A    between atoms: _216  and  _217
REMARK   95  A    between atoms: _220  and  _222
REMARK   96  A    between atoms: _222  and  _223
REMARK   97  A    between atoms: _226  and  _228
REMARK   98  A    between atoms: _228  and  _229
REMARK   99  A    between atoms: _228  and  _231
REMARK  100  A    between atoms: _231  and  _232
REMARK  101  A    between atoms: _242  and  _244
REMARK  102  A    between atoms: _244  and  _245
REMARK  103  A    between atoms: _244  and  _247
REMARK  104  A    between atoms: _247  and  _248
REMARK  105  A    between atoms: _251  and  _253
REMARK  106  A    between atoms: _253  and  _254
REMARK  107  A    between atoms: _253  and  _256
REMARK  108  A    between atoms: _256  and  _257
REMARK  109  A    between atoms: _260  and  _262
REMARK  110  A    between atoms: _262  and  _263
REMARK  111  A    between atoms: _262  and  _265
REMARK  112  A    between atoms: _265  and  _266
REMARK  113  A    between atoms: _266  and  _267
REMARK  114  A    between atoms: _270  and  _272
REMARK  115  A    between atoms: _272  and  _273
REMARK  116  A    between atoms: _272  and  _275
REMARK  117  A    between atoms: _275  and  _276
REMARK  118  A    between atoms: _281  and  _282
REMARK  119  A    between atoms: _284  and  _286
REMARK  120  A    between atoms: _286  and  _287
REMARK  121  A    between atoms: _286  and  _289
REMARK  122  A    between atoms: _289  and  _290
REMARK  123  A    between atoms: _293  and  _294
REMARK  124  A    between atoms: _299  and  _301
REMARK  125  A    between atoms: _301  and  _302
REMARK  126  A    between atoms: _301  and  _304
REMARK  127  A    between atoms: _304  and  _305
REMARK  128  A    between atoms: _305  and  _306
REMARK  129  A    between atoms: _306  and  _307
REMARK  130  A    between atoms: _307  and  _308
REMARK  131  A    between atoms: _312  and  _314
REMARK  132  A    between atoms: _314  and  _315
REMARK  133  A    between atoms: _314  and  _317
REMARK  134  A    between atoms: _317  and  _318
REMARK  135  A    between atoms: _318  and  _319
REMARK  136  A    between atoms: _321  and  _323
REMARK  137  A    between atoms: _323  and  _324
REMARK  138  A    between atoms: _323  and  _326
REMARK  139  A    between atoms: _326  and  _327
REMARK  140  A    between atoms: _330  and  _332
REMARK  141  A    between atoms: _332  and  _333
REMARK  142  A    between atoms: _332  and  _335
REMARK  143  A    between atoms: _335  and  _336
REMARK  144  A    between atoms: _338  and  _340
REMARK  145  A    between atoms: _340  and  _341
REMARK  146  A    between atoms: _340  and  _343
REMARK  147  A    between atoms: _343  and  _344
REMARK  148  A    between atoms: _347  and  _349
REMARK  149  A    between atoms: _349  and  _350
REMARK  150  A    between atoms: _349  and  _352
REMARK  151  A    between atoms: _352  and  _353
REMARK  152  A    between atoms: _353  and  _354
REMARK  153  A    between atoms: _357  and  _359
REMARK  154  A    between atoms: _359  and  _360
REMARK  155  A    between atoms: _363  and  _364
REMARK  156  A    between atoms: _369  and  _371
REMARK  157  A    between atoms: _371  and  _372
REMARK  158  A    between atoms: _375  and  _377
REMARK  159  A    between atoms: _377  and  _378
REMARK  160  A    between atoms: _377  and  _380
REMARK  161  A    between atoms: _380  and  _381
REMARK  162  A    between atoms: _381  and  _382
REMARK  163  A    between atoms: _385  and  _387
REMARK  164  A    between atoms: _387  and  _388
REMARK  165  A    between atoms: _387  and  _390
REMARK  166  A    between atoms: _390  and  _391
REMARK  167  A    between atoms: _396  and  _398
REMARK  168  A    between atoms: _398  and  _399
REMARK  169  A    between atoms: _398  and  _401
REMARK  170  A    between atoms: _401  and  _402
REMARK  171  A    between atoms: _405  and  _407
REMARK  172  A    between atoms: _407  and  _408
REMARK  173  A    between atoms: _407  and  _410
REMARK  174  A    between atoms: _410  and  _411
REMARK  175  A    between atoms: _414  and  _416
REMARK  176  A    between atoms: _416  and  _417
REMARK  177  A    between atoms: _416  and  _419
REMARK  178  A    between atoms: _419  and  _420
REMARK  179  A    between atoms: _426  and  _428
REMARK  180  A    between atoms: _428  and  _429
REMARK  181  A    between atoms: _428  and  _431
REMARK  182  A    between atoms: _434  and  _436
REMARK  183  A    between atoms: _436  and  _437
REMARK  184  A    between atoms: _436  and  _439
REMARK  185  A    between atoms: _439  and  _440
REMARK  186  A    between atoms: _443  and  _445
REMARK  187  A    between atoms: _445  and  _446
REMARK  188  A    between atoms: _449  and  _451
REMARK  189  A    between atoms: _451  and  _452
REMARK  190  A    between atoms: _451  and  _454
REMARK  191  A    between atoms: _454  and  _455
REMARK  192  A    between atoms: _460  and  _462
REMARK  193  A    between atoms: _462  and  _463
REMARK  194  A    between atoms: _462  and  _465
REMARK  195  A    between atoms: _465  and  _466
REMARK  196  A    between atoms: _466  and  _467
REMARK  197  A    between atoms: _467  and  _468
REMARK  198  A    between atoms: _468  and  _469
REMARK  199  A    between atoms: _473  and  _475
REMARK  200  A    between atoms: _475  and  _476
REMARK  201  A    between atoms: _475  and  _478
REMARK  202  A    between atoms: _478  and  _479
REMARK  203  A    between atoms: _482  and  _484
REMARK  204  A    between atoms: _484  and  _485
REMARK  205  A    between atoms: _487  and  _489
REMARK  206  A    between atoms: _489  and  _490
REMARK  207  A    between atoms: _489  and  _492
REMARK  208  A    between atoms: _492  and  _493
REMARK  209  A    between atoms: _498  and  _499
REMARK  210  A    between atoms: _501  and  _503
REMARK  211  A    between atoms: _503  and  _504
REMARK  212  A    between atoms: _503  and  _506
REMARK  213  A    between atoms: _506  and  _507
REMARK  214  A    between atoms: _512  and  _513
REMARK  215  A    between atoms: _515  and  _517
REMARK  216  A    between atoms: _517  and  _518
REMARK  217  A    between atoms: _517  and  _520
REMARK  218  A    between atoms: _520  and  _521
REMARK  219  A    between atoms: _524  and  _526
REMARK  220  A    between atoms: _526  and  _527
REMARK  221  A    between atoms: _526  and  _529
REMARK  222  A    between atoms: _529  and  _530
REMARK  223  A    between atoms: _535  and  _537
REMARK  224  A    between atoms: _537  and  _538
REMARK  225  A    between atoms: _537  and  _540
REMARK  226  A    between atoms: _540  and  _541
REMARK  227  A    between atoms: _541  and  _542
REMARK  228  A    between atoms: _542  and  _543
REMARK  229  A    between atoms: _552  and  _554
REMARK  230  A    between atoms: _554  and  _555
REMARK  231  A    between atoms: _554  and  _557
REMARK  232  A    between atoms: _557  and  _558
REMARK  233  A    between atoms: _563  and  _564
REMARK  234  A    between atoms: _566  and  _568
REMARK  235  A    between atoms: _568  and  _569
REMARK  236  A    between atoms: _568  and  _571
REMARK  237  A    between atoms: _571  and  _572
REMARK                            x       y       z     vdW  Elec       q    Type
REMARK                         _______ _______ _______ _____ _____    ______ ____
ROOT
ATOM      1  O   HOH     1     -11.981   2.265 -15.394  0.00  0.00    +0.000 OA
ENDROOT
TORSDOF 0
REMARK  Name = ../refined-set-2016/4ymg/4ymg_pocket.pdb
REMARK  237 active torsions:
REMARK  status: ('A' for Active; 'I' for Inactive)
REMARK    1  A    between atoms: _1  and  _3
REMARK    2  A    between atoms: _3  and  _4
REMARK    3  A    between atoms: _3  and  _6
REMARK    4  A    between atoms: _6  and  _7
REMARK    5  A    between atoms: _12  and  _14
REMARK    6  A    between atoms: _14  and  _15
REMARK    7  A    between atoms: _14  and  _17
REMARK    8  A    between atoms: _17  and  _18
REMARK    9  A    between atoms: _28  and  _30
REMARK   10  A    between atoms: _30  and  _31
REMARK   11  A    between atoms: _30  and  _33
REMARK   12  A    between atoms: _33  and  _34
REMARK   13  A    between atoms: _37  and  _39
REMARK   14  A    between atoms: _39  and  _40
REMARK   15  A    between atoms: _39  and  _42
REMARK   16  A    between atoms: _42  and  _43
REMARK   17  A    between atoms: _46  and  _48
REMARK   18  A    between atoms: _48  and  _49
REMARK   19  A    between atoms: _52  and  _54
REMARK   20  A    between atoms: _54  and  _55
REMARK   21  A    between atoms: _54  and  _57
REMARK   22  A    between atoms: _57  and  _58
REMARK   23  A    between atoms: _61  and  _63
REMARK   24  A    between atoms: _63  and  _64
REMARK   25  A    between atoms: _63  and  _66
REMARK   26  A    between atoms: _66  and  _67
REMARK   27  A    between atoms: _67  and  _68
REMARK   28  A    between atoms: _68  and  _69
REMARK   29  A    between atoms: _69  and  _70
REMARK   30  A    between atoms: _74  and  _76
REMARK   31  A    between atoms: _76  and  _77
REMARK   32  A    between atoms: _76  and  _79
REMARK   33  A    between atoms: _79  and  _80
REMARK   34  A    between atoms: _80  and  _81
REMARK   35  A    between atoms: _83  and  _85
REMARK   36  A    between atoms: _85  and  _86
REMARK   37  A    between atoms: _85  and  _88
REMARK   38  A    between atoms: _88  and  _89
REMARK   39  A    between atoms: _91  and  _93
REMARK   40  A    between atoms: _93  and  _94
REMARK   41  A    between atoms: _93  and  _96
REMARK   42  A    between atoms: _96  and  _97
REMARK   43  A    between atoms: _99  and  _101
REMARK   44  A    between atoms: _101  and  _102
REMARK   45  A    between atoms: _101  and  _104
REMARK   46  A    between atoms: _104  and  _105
REMARK   47  A    between atoms: _105  and  _106
REMARK   48  A    between atoms: _111  and  _113
REMARK   49  A    between atoms: _113  and  _114
REMARK   50  A    between atoms: _116  and  _118
REMARK   51  A    between atoms: _118  and  _119
REMARK   52  A    between atoms: _118  and  _121
REMARK   53  A    between atoms: _121  and  _122
REMARK   54  A    between atoms: _122  and  _123
REMARK   55  A    between atoms: _125  and  _127
REMARK   56  A    between atoms: _127  and  _128
REMARK   57  A    between atoms: _127  and  _130
REMARK   58  A    between atoms: _130  and  _131
REMARK   59  A    between atoms: _131  and  _132
REMARK   60  A    between atoms: _135  and  _137
REMARK   61  A    between atoms: _137  and  _138
REMARK   62  A    between atoms: _137  and  _140
REMARK   63  A    between atoms: _140  and  _141
REMARK   64  A    between atoms: _144  and  _146
REMARK   65  A    between atoms: _146  and  _147
REMARK   66  A    between atoms: _149  and  _151
REMARK   67  A    between atoms: _151  and  _152
REMARK   68  A    between atoms: _151  and  _154
REMARK   69  A    between atoms: _156  and  _158
REMARK   70  A    between atoms: _158  and  _159
REMARK   71  A    between atoms: _158  and  _161
REMARK   72  A    between atoms: _161  and  _162
REMARK   73  A    between atoms: _167  and  _168
REMARK   74  A    between atoms: _170  and  _172
REMARK   75  A    between atoms: _172  and  _173
REMARK   76  A    between atoms: _172  and  _175
REMARK   77  A    between atoms: _175  and  _176
REMARK   78  A    between atoms: _178  and  _180
REMARK   79  A    between atoms: _180  and  _181
REMARK   80  A    between atoms: _183  and  _185
REMARK   81  A    between atoms: _185  and  _186
REMARK   82  A    between atoms: _185  and  _188
REMARK   83  A    between atoms: _188  and  _189
REMARK   84  A    between atoms: _194  and  _195
REMARK   85  A    between atoms: _197  and  _199
REMARK   86  A    between atoms: _199  and  _200
REMARK   87  A    between atoms: _199  and  _202
REMARK   88  A    between atoms: _202  and  _203
REMARK   89  A    between atoms: _205  and  _207
REMARK   90  A    between atoms: _207  and  _208
REMARK   91  A    between atoms: _211  and  _213
REMARK   92  A    between atoms: _213  and  _214
REMARK   93  A    between atoms: _213  and  _216
REMARK   94  A    between atoms: _216  and  _217
REMARK   95  A    between atoms: _220  and  _222
REMARK   96  A    between atoms: _222  and  _223
REMARK   97  A    between atoms: _226  and  _228
REMARK   98  A    between atoms: _228  and  _229
REMARK   99  A    between atoms: _228  and  _231
REMARK  100  A    between atoms: _231  and  _232
REMARK  101  A    between atoms: _242  and  _244
REMARK  102  A    between atoms: _244  and  _245
REMARK  103  A    between atoms: _244  and  _247
REMARK  104  A    between atoms: _247  and  _248
REMARK  105  A    between atoms: _251  and  _253
REMARK  106  A    between atoms: _253  and  _254
REMARK  107  A    between atoms: _253  and  _256
REMARK  108  A    between atoms: _256  and  _257
REMARK  109  A    between atoms: _260  and  _262
REMARK  110  A    between atoms: _262  and  _263
REMARK  111  A    between atoms: _262  and  _265
REMARK  112  A    between atoms: _265  and  _266
REMARK  113  A    between atoms: _266  and  _267
REMARK  114  A    between atoms: _270  and  _272
REMARK  115  A    between atoms: _272  and  _273
REMARK  116  A    between atoms: _272  and  _275
REMARK  117  A    between atoms: _275  and  _276
REMARK  118  A    between atoms: _281  and  _282
REMARK  119  A    between atoms: _284  and  _286
REMARK  120  A    between atoms: _286  and  _287
REMARK  121  A    between atoms: _286  and  _289
REMARK  122  A    between atoms: _289  and  _290
REMARK  123  A    between atoms: _293  and  _294
REMARK  124  A    between atoms: _299  and  _301
REMARK  125  A    between atoms: _301  and  _302
REMARK  126  A    between atoms: _301  and  _304
REMARK  127  A    between atoms: _304  and  _305
REMARK  128  A    between atoms: _305  and  _306
REMARK  129  A    between atoms: _306  and  _307
REMARK  130  A    between atoms: _307  and  _308
REMARK  131  A    between atoms: _312  and  _314
REMARK  132  A    between atoms: _314  and  _315
REMARK  133  A    between atoms: _314  and  _317
REMARK  134  A    between atoms: _317  and  _318
REMARK  135  A    between atoms: _318  and  _319
REMARK  136  A    between atoms: _321  and  _323
REMARK  137  A    between atoms: _323  and  _324
REMARK  138  A    between atoms: _323  and  _326
REMARK  139  A    between atoms: _326  and  _327
REMARK  140  A    between atoms: _330  and  _332
REMARK  141  A    between atoms: _332  and  _333
REMARK  142  A    between atoms: _332  and  _335
REMARK  143  A    between atoms: _335  and  _336
REMARK  144  A    between atoms: _338  and  _340
REMARK  145  A    between atoms: _340  and  _341
REMARK  146  A    between atoms: _340  and  _343
REMARK  147  A    between atoms: _343  and  _344
REMARK  148  A    between atoms: _347  and  _349
REMARK  149  A    between atoms: _349  and  _350
REMARK  150  A    between atoms: _349  and  _352
REMARK  151  A    between atoms: _352  and  _353
REMARK  152  A    between atoms: _353  and  _354
REMARK  153  A    between atoms: _357  and  _359
REMARK  154  A    between atoms: _359  and  _360
REMARK  155  A    between atoms: _363  and  _364
REMARK  156  A    between atoms: _369  and  _371
REMARK  157  A    between atoms: _371  and  _372
REMARK  158  A    between atoms: _375  and  _377
REMARK  159  A    between atoms: _377  and  _378
REMARK  160  A    between atoms: _377  and  _380
REMARK  161  A    between atoms: _380  and  _381
REMARK  162  A    between atoms: _381  and  _382
REMARK  163  A    between atoms: _385  and  _387
REMARK  164  A    between atoms: _387  and  _388
REMARK  165  A    between atoms: _387  and  _390
REMARK  166  A    between atoms: _390  and  _391
REMARK  167  A    between atoms: _396  and  _398
REMARK  168  A    between atoms: _398  and  _399
REMARK  169  A    between atoms: _398  and  _401
REMARK  170  A    between atoms: _401  and  _402
REMARK  171  A    between atoms: _405  and  _407
REMARK  172  A    between atoms: _407  and  _408
REMARK  173  A    between atoms: _407  and  _410
REMARK  174  A    between atoms: _410  and  _411
REMARK  175  A    between atoms: _414  and  _416
REMARK  176  A    between atoms: _416  and  _417
REMARK  177  A    between atoms: _416  and  _419
REMARK  178  A    between atoms: _419  and  _420
REMARK  179  A    between atoms: _426  and  _428
REMARK  180  A    between atoms: _428  and  _429
REMARK  181  A    between atoms: _428  and  _431
REMARK  182  A    between atoms: _434  and  _436
REMARK  183  A    between atoms: _436  and  _437
REMARK  184  A    between atoms: _436  and  _439
REMARK  185  A    between atoms: _439  and  _440
REMARK  186  A    between atoms: _443  and  _445
REMARK  187  A    between atoms: _445  and  _446
REMARK  188  A    between atoms: _449  and  _451
REMARK  189  A    between atoms: _451  and  _452
REMARK  190  A    between atoms: _451  and  _454
REMARK  191  A    between atoms: _454  and  _455
REMARK  192  A    between atoms: _460  and  _462
REMARK  193  A    between atoms: _462  and  _463
REMARK  194  A    between atoms: _462  and  _465
REMARK  195  A    between atoms: _465  and  _466
REMARK  196  A    between atoms: _466  and  _467
REMARK  197  A    between atoms: _467  and  _468
REMARK  198  A    between atoms: _468  and  _469
REMARK  199  A    between atoms: _473  and  _475
REMARK  200  A    between atoms: _475  and  _476
REMARK  201  A    between atoms: _475  and  _478
REMARK  202  A    between atoms: _478  and  _479
REMARK  203  A    between atoms: _482  and  _484
REMARK  204  A    between atoms: _484  and  _485
REMARK  205  A    between atoms: _487  and  _489
REMARK  206  A    between atoms: _489  and  _490
REMARK  207  A    between atoms: _489  and  _492
REMARK  208  A    between atoms: _492  and  _493
REMARK  209  A    between atoms: _498  and  _499
REMARK  210  A    between atoms: _501  and  _503
REMARK  211  A    between atoms: _503  and  _504
REMARK  212  A    between atoms: _503  and  _506
REMARK  213  A    between atoms: _506  and  _507
REMARK  214  A    between atoms: _512  and  _513
REMARK  215  A    between atoms: _515  and  _517
REMARK  216  A    between atoms: _517  and  _518
REMARK  217  A    between atoms: _517  and  _520
REMARK  218  A    between atoms: _520  and  _521
REMARK  219  A    between atoms: _524  and  _526
REMARK  220  A    between atoms: _526  and  _527
REMARK  221  A    between atoms: _526  and  _529
REMARK  222  A    between atoms: _529  and  _530
REMARK  223  A    between atoms: _535  and  _537
REMARK  224  A    between atoms: _537  and  _538
REMARK  225  A    between atoms: _537  and  _540
REMARK  226  A    between atoms: _540  and  _541
REMARK  227  A    between atoms: _541  and  _542
REMARK  228  A    between atoms: _542  and  _543
REMARK  229  A    between atoms: _552  and  _554
REMARK  230  A    between atoms: _554  and  _555
REMARK  231  A    between atoms: _554  and  _557
REMARK  232  A    between atoms: _557  and  _558
REMARK  233  A    between atoms: _563  and  _564
REMARK  234  A    between atoms: _566  and  _568
REMARK  235  A    between atoms: _568  and  _569
REMARK  236  A    between atoms: _568  and  _571
REMARK  237  A    between atoms: _571  and  _572
REMARK                            x       y       z     vdW  Elec       q    Type
REMARK                         _______ _______ _______ _____ _____    ______ ____
ROOT
ATOM      1  O   HOH     1     -11.528   0.036 -25.313  0.00  0.00    +0.000 OA
ENDROOT
TORSDOF 0
REMARK  Name = ../refined-set-2016/4ymg/4ymg_pocket.pdb
REMARK  237 active torsions:
REMARK  status: ('A' for Active; 'I' for Inactive)
REMARK    1  A    between atoms: _1  and  _3
REMARK    2  A    between atoms: _3  and  _4
REMARK    3  A    between atoms: _3  and  _6
REMARK    4  A    between atoms: _6  and  _7
REMARK    5  A    between atoms: _12  and  _14
REMARK    6  A    between atoms: _14  and  _15
REMARK    7  A    between atoms: _14  and  _17
REMARK    8  A    between atoms: _17  and  _18
REMARK    9  A    between atoms: _28  and  _30
REMARK   10  A    between atoms: _30  and  _31
REMARK   11  A    between atoms: _30  and  _33
REMARK   12  A    between atoms: _33  and  _34
REMARK   13  A    between atoms: _37  and  _39
REMARK   14  A    between atoms: _39  and  _40
REMARK   15  A    between atoms: _39  and  _42
REMARK   16  A    between atoms: _42  and  _43
REMARK   17  A    between atoms: _46  and  _48
REMARK   18  A    between atoms: _48  and  _49
REMARK   19  A    between atoms: _52  and  _54
REMARK   20  A    between atoms: _54  and  _55
REMARK   21  A    between atoms: _54  and  _57
REMARK   22  A    between atoms: _57  and  _58
REMARK   23  A    between atoms: _61  and  _63
REMARK   24  A    between atoms: _63  and  _64
REMARK   25  A    between atoms: _63  and  _66
REMARK   26  A    between atoms: _66  and  _67
REMARK   27  A    between atoms: _67  and  _68
REMARK   28  A    between atoms: _68  and  _69
REMARK   29  A    between atoms: _69  and  _70
REMARK   30  A    between atoms: _74  and  _76
REMARK   31  A    between atoms: _76  and  _77
REMARK   32  A    between atoms: _76  and  _79
REMARK   33  A    between atoms: _79  and  _80
REMARK   34  A    between atoms: _80  and  _81
REMARK   35  A    between atoms: _83  and  _85
REMARK   36  A    between atoms: _85  and  _86
REMARK   37  A    between atoms: _85  and  _88
REMARK   38  A    between atoms: _88  and  _89
REMARK   39  A    between atoms: _91  and  _93
REMARK   40  A    between atoms: _93  and  _94
REMARK   41  A    between atoms: _93  and  _96
REMARK   42  A    between atoms: _96  and  _97
REMARK   43  A    between atoms: _99  and  _101
REMARK   44  A    between atoms: _101  and  _102
REMARK   45  A    between atoms: _101  and  _104
REMARK   46  A    between atoms: _104  and  _105
REMARK   47  A    between atoms: _105  and  _106
REMARK   48  A    between atoms: _111  and  _113
REMARK   49  A    between atoms: _113  and  _114
REMARK   50  A    between atoms: _116  and  _118
REMARK   51  A    between atoms: _118  and  _119
REMARK   52  A    between atoms: _118  and  _121
REMARK   53  A    between atoms: _121  and  _122
REMARK   54  A    between atoms: _122  and  _123
REMARK   55  A    between atoms: _125  and  _127
REMARK   56  A    between atoms: _127  and  _128
REMARK   57  A    between atoms: _127  and  _130
REMARK   58  A    between atoms: _130  and  _131
REMARK   59  A    between atoms: _131  and  _132
REMARK   60  A    between atoms: _135  and  _137
REMARK   61  A    between atoms: _137  and  _138
REMARK   62  A    between atoms: _137  and  _140
REMARK   63  A    between atoms: _140  and  _141
REMARK   64  A    between atoms: _144  and  _146
REMARK   65  A    between atoms: _146  and  _147
REMARK   66  A    between atoms: _149  and  _151
REMARK   67  A    between atoms: _151  and  _152
REMARK   68  A    between atoms: _151  and  _154
REMARK   69  A    between atoms: _156  and  _158
REMARK   70  A    between atoms: _158  and  _159
REMARK   71  A    between atoms: _158  and  _161
REMARK   72  A    between atoms: _161  and  _162
REMARK   73  A    between atoms: _167  and  _168
REMARK   74  A    between atoms: _170  and  _172
REMARK   75  A    between atoms: _172  and  _173
REMARK   76  A    between atoms: _172  and  _175
REMARK   77  A    between atoms: _175  and  _176
REMARK   78  A    between atoms: _178  and  _180
REMARK   79  A    between atoms: _180  and  _181
REMARK   80  A    between atoms: _183  and  _185
REMARK   81  A    between atoms: _185  and  _186
REMARK   82  A    between atoms: _185  and  _188
REMARK   83  A    between atoms: _188  and  _189
REMARK   84  A    between atoms: _194  and  _195
REMARK   85  A    between atoms: _197  and  _199
REMARK   86  A    between atoms: _199  and  _200
REMARK   87  A    between atoms: _199  and  _202
REMARK   88  A    between atoms: _202  and  _203
REMARK   89  A    between atoms: _205  and  _207
REMARK   90  A    between atoms: _207  and  _208
REMARK   91  A    between atoms: _211  and  _213
REMARK   92  A    between atoms: _213  and  _214
REMARK   93  A    between atoms: _213  and  _216
REMARK   94  A    between atoms: _216  and  _217
REMARK   95  A    between atoms: _220  and  _222
REMARK   96  A    between atoms: _222  and  _223
REMARK   97  A    between atoms: _226  and  _228
REMARK   98  A    between atoms: _228  and  _229
REMARK   99  A    between atoms: _228  and  _231
REMARK  100  A    between atoms: _231  and  _232
REMARK  101  A    between atoms: _242  and  _244
REMARK  102  A    between atoms: _244  and  _245
REMARK  103  A    between atoms: _244  and  _247
REMARK  104  A    between atoms: _247  and  _248
REMARK  105  A    between atoms: _251  and  _253
REMARK  106  A    between atoms: _253  and  _254
REMARK  107  A    between atoms: _253  and  _256
REMARK  108  A    between atoms: _256  and  _257
REMARK  109  A    between atoms: _260  and  _262
REMARK  110  A    between atoms: _262  and  _263
REMARK  111  A    between atoms: _262  and  _265
REMARK  112  A    between atoms: _265  and  _266
REMARK  113  A    between atoms: _266  and  _267
REMARK  114  A    between atoms: _270  and  _272
REMARK  115  A    between atoms: _272  and  _273
REMARK  116  A    between atoms: _272  and  _275
REMARK  117  A    between atoms: _275  and  _276
REMARK  118  A    between atoms: _281  and  _282
REMARK  119  A    between atoms: _284  and  _286
REMARK  120  A    between atoms: _286  and  _287
REMARK  121  A    between atoms: _286  and  _289
REMARK  122  A    between atoms: _289  and  _290
REMARK  123  A    between atoms: _293  and  _294
REMARK  124  A    between atoms: _299  and  _301
REMARK  125  A    between atoms: _301  and  _302
REMARK  126  A    between atoms: _301  and  _304
REMARK  127  A    between atoms: _304  and  _305
REMARK  128  A    between atoms: _305  and  _306
REMARK  129  A    between atoms: _306  and  _307
REMARK  130  A    between atoms: _307  and  _308
REMARK  131  A    between atoms: _312  and  _314
REMARK  132  A    between atoms: _314  and  _315
REMARK  133  A    between atoms: _314  and  _317
REMARK  134  A    between atoms: _317  and  _318
REMARK  135  A    between atoms: _318  and  _319
REMARK  136  A    between atoms: _321  and  _323
REMARK  137  A    between atoms: _323  and  _324
REMARK  138  A    between atoms: _323  and  _326
REMARK  139  A    between atoms: _326  and  _327
REMARK  140  A    between atoms: _330  and  _332
REMARK  141  A    between atoms: _332  and  _333
REMARK  142  A    between atoms: _332  and  _335
REMARK  143  A    between atoms: _335  and  _336
REMARK  144  A    between atoms: _338  and  _340
REMARK  145  A    between atoms: _340  and  _341
REMARK  146  A    between atoms: _340  and  _343
REMARK  147  A    between atoms: _343  and  _344
REMARK  148  A    between atoms: _347  and  _349
REMARK  149  A    between atoms: _349  and  _350
REMARK  150  A    between atoms: _349  and  _352
REMARK  151  A    between atoms: _352  and  _353
REMARK  152  A    between atoms: _353  and  _354
REMARK  153  A    between atoms: _357  and  _359
REMARK  154  A    between atoms: _359  and  _360
REMARK  155  A    between atoms: _363  and  _364
REMARK  156  A    between atoms: _369  and  _371
REMARK  157  A    between atoms: _371  and  _372
REMARK  158  A    between atoms: _375  and  _377
REMARK  159  A    between atoms: _377  and  _378
REMARK  160  A    between atoms: _377  and  _380
REMARK  161  A    between atoms: _380  and  _381
REMARK  162  A    between atoms: _381  and  _382
REMARK  163  A    between atoms: _385  and  _387
REMARK  164  A    between atoms: _387  and  _388
REMARK  165  A    between atoms: _387  and  _390
REMARK  166  A    between atoms: _390  and  _391
REMARK  167  A    between atoms: _396  and  _398
REMARK  168  A    between atoms: _398  and  _399
REMARK  169  A    between atoms: _398  and  _401
REMARK  170  A    between atoms: _401  and  _402
REMARK  171  A    between atoms: _405  and  _407
REMARK  172  A    between atoms: _407  and  _408
REMARK  173  A    between atoms: _407  and  _410
REMARK  174  A    between atoms: _410  and  _411
REMARK  175  A    between atoms: _414  and  _416
REMARK  176  A    between atoms: _416  and  _417
REMARK  177  A    between atoms: _416  and  _419
REMARK  178  A    between atoms: _419  and  _420
REMARK  179  A    between atoms: _426  and  _428
REMARK  180  A    between atoms: _428  and  _429
REMARK  181  A    between atoms: _428  and  _431
REMARK  182  A    between atoms: _434  and  _436
REMARK  183  A    between atoms: _436  and  _437
REMARK  184  A    between atoms: _436  and  _439
REMARK  185  A    between atoms: _439  and  _440
REMARK  186  A    between atoms: _443  and  _445
REMARK  187  A    between atoms: _445  and  _446
REMARK  188  A    between atoms: _449  and  _451
REMARK  189  A    between atoms: _451  and  _452
REMARK  190  A    between atoms: _451  and  _454
REMARK  191  A    between atoms: _454  and  _455
REMARK  192  A    between atoms: _460  and  _462
REMARK  193  A    between atoms: _462  and  _463
REMARK  194  A    between atoms: _462  and  _465
REMARK  195  A    between atoms: _465  and  _466
REMARK  196  A    between atoms: _466  and  _467
REMARK  197  A    between atoms: _467  and  _468
REMARK  198  A    between atoms: _468  and  _469
REMARK  199  A    between atoms: _473  and  _475
REMARK  200  A    between atoms: _475  and  _476
REMARK  201  A    between atoms: _475  and  _478
REMARK  202  A    between atoms: _478  and  _479
REMARK  203  A    between atoms: _482  and  _484
REMARK  204  A    between atoms: _484  and  _485
REMARK  205  A    between atoms: _487  and  _489
REMARK  206  A    between atoms: _489  and  _490
REMARK  207  A    between atoms: _489  and  _492
REMARK  208  A    between atoms: _492  and  _493
REMARK  209  A    between atoms: _498  and  _499
REMARK  210  A    between atoms: _501  and  _503
REMARK  211  A    between atoms: _503  and  _504
REMARK  212  A    between atoms: _503  and  _506
REMARK  213  A    between atoms: _506  and  _507
REMARK  214  A    between atoms: _512  and  _513
REMARK  215  A    between atoms: _515  and  _517
REMARK  216  A    between atoms: _517  and  _518
REMARK  217  A    between atoms: _517  and  _520
REMARK  218  A    between atoms: _520  and  _521
REMARK  219  A    between atoms: _524  and  _526
REMARK  220  A    between atoms: _526  and  _527
REMARK  221  A    between atoms: _526  and  _529
REMARK  222  A    between atoms: _529  and  _530
REMARK  223  A    between atoms: _535  and  _537
REMARK  224  A    between atoms: _537  and  _538
REMARK  225  A    between atoms: _537  and  _540
REMARK  226  A    between atoms: _540  and  _541
REMARK  227  A    between atoms: _541  and  _542
REMARK  228  A    between atoms: _542  and  _543
REMARK  229  A    between atoms: _552  and  _554
REMARK  230  A    between atoms: _554  and  _555
REMARK  231  A    between atoms: _554  and  _557
REMARK  232  A    between atoms: _557  and  _558
REMARK  233  A    between atoms: _563  and  _564
REMARK  234  A    between atoms: _566  and  _568
REMARK  235  A    between atoms: _568  and  _569
REMARK  236  A    between atoms: _568  and  _571
REMARK  237  A    between atoms: _571  and  _572
REMARK                            x       y       z     vdW  Elec       q    Type
REMARK                         _______ _______ _______ _____ _____    ______ ____
ROOT
ATOM      1  O   HOH     1      -9.139   0.479 -17.883  0.00  0.00    +0.000 OA
ENDROOT
TORSDOF 0
REMARK  Name = ../refined-set-2016/4ymg/4ymg_pocket.pdb
REMARK  237 active torsions:
REMARK  status: ('A' for Active; 'I' for Inactive)
REMARK    1  A    between atoms: _1  and  _3
REMARK    2  A    between atoms: _3  and  _4
REMARK    3  A    between atoms: _3  and  _6
REMARK    4  A    between atoms: _6  and  _7
REMARK    5  A    between atoms: _12  and  _14
REMARK    6  A    between atoms: _14  and  _15
REMARK    7  A    between atoms: _14  and  _17
REMARK    8  A    between atoms: _17  and  _18
REMARK    9  A    between atoms: _28  and  _30
REMARK   10  A    between atoms: _30  and  _31
REMARK   11  A    between atoms: _30  and  _33
REMARK   12  A    between atoms: _33  and  _34
REMARK   13  A    between atoms: _37  and  _39
REMARK   14  A    between atoms: _39  and  _40
REMARK   15  A    between atoms: _39  and  _42
REMARK   16  A    between atoms: _42  and  _43
REMARK   17  A    between atoms: _46  and  _48
REMARK   18  A    between atoms: _48  and  _49
REMARK   19  A    between atoms: _52  and  _54
REMARK   20  A    between atoms: _54  and  _55
REMARK   21  A    between atoms: _54  and  _57
REMARK   22  A    between atoms: _57  and  _58
REMARK   23  A    between atoms: _61  and  _63
REMARK   24  A    between atoms: _63  and  _64
REMARK   25  A    between atoms: _63  and  _66
REMARK   26  A    between atoms: _66  and  _67
REMARK   27  A    between atoms: _67  and  _68
REMARK   28  A    between atoms: _68  and  _69
REMARK   29  A    between atoms: _69  and  _70
REMARK   30  A    between atoms: _74  and  _76
REMARK   31  A    between atoms: _76  and  _77
REMARK   32  A    between atoms: _76  and  _79
REMARK   33  A    between atoms: _79  and  _80
REMARK   34  A    between atoms: _80  and  _81
REMARK   35  A    between atoms: _83  and  _85
REMARK   36  A    between atoms: _85  and  _86
REMARK   37  A    between atoms: _85  and  _88
REMARK   38  A    between atoms: _88  and  _89
REMARK   39  A    between atoms: _91  and  _93
REMARK   40  A    between atoms: _93  and  _94
REMARK   41  A    between atoms: _93  and  _96
REMARK   42  A    between atoms: _96  and  _97
REMARK   43  A    between atoms: _99  and  _101
REMARK   44  A    between atoms: _101  and  _102
REMARK   45  A    between atoms: _101  and  _104
REMARK   46  A    between atoms: _104  and  _105
REMARK   47  A    between atoms: _105  and  _106
REMARK   48  A    between atoms: _111  and  _113
REMARK   49  A    between atoms: _113  and  _114
REMARK   50  A    between atoms: _116  and  _118
REMARK   51  A    between atoms: _118  and  _119
REMARK   52  A    between atoms: _118  and  _121
REMARK   53  A    between atoms: _121  and  _122
REMARK   54  A    between atoms: _122  and  _123
REMARK   55  A    between atoms: _125  and  _127
REMARK   56  A    between atoms: _127  and  _128
REMARK   57  A    between atoms: _127  and  _130
REMARK   58  A    between atoms: _130  and  _131
REMARK   59  A    between atoms: _131  and  _132
REMARK   60  A    between atoms: _135  and  _137
REMARK   61  A    between atoms: _137  and  _138
REMARK   62  A    between atoms: _137  and  _140
REMARK   63  A    between atoms: _140  and  _141
REMARK   64  A    between atoms: _144  and  _146
REMARK   65  A    between atoms: _146  and  _147
REMARK   66  A    between atoms: _149  and  _151
REMARK   67  A    between atoms: _151  and  _152
REMARK   68  A    between atoms: _151  and  _154
REMARK   69  A    between atoms: _156  and  _158
REMARK   70  A    between atoms: _158  and  _159
REMARK   71  A    between atoms: _158  and  _161
REMARK   72  A    between atoms: _161  and  _162
REMARK   73  A    between atoms: _167  and  _168
REMARK   74  A    between atoms: _170  and  _172
REMARK   75  A    between atoms: _172  and  _173
REMARK   76  A    between atoms: _172  and  _175
REMARK   77  A    between atoms: _175  and  _176
REMARK   78  A    between atoms: _178  and  _180
REMARK   79  A    between atoms: _180  and  _181
REMARK   80  A    between atoms: _183  and  _185
REMARK   81  A    between atoms: _185  and  _186
REMARK   82  A    between atoms: _185  and  _188
REMARK   83  A    between atoms: _188  and  _189
REMARK   84  A    between atoms: _194  and  _195
REMARK   85  A    between atoms: _197  and  _199
REMARK   86  A    between atoms: _199  and  _200
REMARK   87  A    between atoms: _199  and  _202
REMARK   88  A    between atoms: _202  and  _203
REMARK   89  A    between atoms: _205  and  _207
REMARK   90  A    between atoms: _207  and  _208
REMARK   91  A    between atoms: _211  and  _213
REMARK   92  A    between atoms: _213  and  _214
REMARK   93  A    between atoms: _213  and  _216
REMARK   94  A    between atoms: _216  and  _217
REMARK   95  A    between atoms: _220  and  _222
REMARK   96  A    between atoms: _222  and  _223
REMARK   97  A    between atoms: _226  and  _228
REMARK   98  A    between atoms: _228  and  _229
REMARK   99  A    between atoms: _228  and  _231
REMARK  100  A    between atoms: _231  and  _232
REMARK  101  A    between atoms: _242  and  _244
REMARK  102  A    between atoms: _244  and  _245
REMARK  103  A    between atoms: _244  and  _247
REMARK  104  A    between atoms: _247  and  _248
REMARK  105  A    between atoms: _251  and  _253
REMARK  106  A    between atoms: _253  and  _254
REMARK  107  A    between atoms: _253  and  _256
REMARK  108  A    between atoms: _256  and  _257
REMARK  109  A    between atoms: _260  and  _262
REMARK  110  A    between atoms: _262  and  _263
REMARK  111  A    between atoms: _262  and  _265
REMARK  112  A    between atoms: _265  and  _266
REMARK  113  A    between atoms: _266  and  _267
REMARK  114  A    between atoms: _270  and  _272
REMARK  115  A    between atoms: _272  and  _273
REMARK  116  A    between atoms: _272  and  _275
REMARK  117  A    between atoms: _275  and  _276
REMARK  118  A    between atoms: _281  and  _282
REMARK  119  A    between atoms: _284  and  _286
REMARK  120  A    between atoms: _286  and  _287
REMARK  121  A    between atoms: _286  and  _289
REMARK  122  A    between atoms: _289  and  _290
REMARK  123  A    between atoms: _293  and  _294
REMARK  124  A    between atoms: _299  and  _301
REMARK  125  A    between atoms: _301  and  _302
REMARK  126  A    between atoms: _301  and  _304
REMARK  127  A    between atoms: _304  and  _305
REMARK  128  A    between atoms: _305  and  _306
REMARK  129  A    between atoms: _306  and  _307
REMARK  130  A    between atoms: _307  and  _308
REMARK  131  A    between atoms: _312  and  _314
REMARK  132  A    between atoms: _314  and  _315
REMARK  133  A    between atoms: _314  and  _317
REMARK  134  A    between atoms: _317  and  _318
REMARK  135  A    between atoms: _318  and  _319
REMARK  136  A    between atoms: _321  and  _323
REMARK  137  A    between atoms: _323  and  _324
REMARK  138  A    between atoms: _323  and  _326
REMARK  139  A    between atoms: _326  and  _327
REMARK  140  A    between atoms: _330  and  _332
REMARK  141  A    between atoms: _332  and  _333
REMARK  142  A    between atoms: _332  and  _335
REMARK  143  A    between atoms: _335  and  _336
REMARK  144  A    between atoms: _338  and  _340
REMARK  145  A    between atoms: _340  and  _341
REMARK  146  A    between atoms: _340  and  _343
REMARK  147  A    between atoms: _343  and  _344
REMARK  148  A    between atoms: _347  and  _349
REMARK  149  A    between atoms: _349  and  _350
REMARK  150  A    between atoms: _349  and  _352
REMARK  151  A    between atoms: _352  and  _353
REMARK  152  A    between atoms: _353  and  _354
REMARK  153  A    between atoms: _357  and  _359
REMARK  154  A    between atoms: _359  and  _360
REMARK  155  A    between atoms: _363  and  _364
REMARK  156  A    between atoms: _369  and  _371
REMARK  157  A    between atoms: _371  and  _372
REMARK  158  A    between atoms: _375  and  _377
REMARK  159  A    between atoms: _377  and  _378
REMARK  160  A    between atoms: _377  and  _380
REMARK  161  A    between atoms: _380  and  _381
REMARK  162  A    between atoms: _381  and  _382
REMARK  163  A    between atoms: _385  and  _387
REMARK  164  A    between atoms: _387  and  _388
REMARK  165  A    between atoms: _387  and  _390
REMARK  166  A    between atoms: _390  and  _391
REMARK  167  A    between atoms: _396  and  _398
REMARK  168  A    between atoms: _398  and  _399
REMARK  169  A    between atoms: _398  and  _401
REMARK  170  A    between atoms: _401  and  _402
REMARK  171  A    between atoms: _405  and  _407
REMARK  172  A    between atoms: _407  and  _408
REMARK  173  A    between atoms: _407  and  _410
REMARK  174  A    between atoms: _410  and  _411
REMARK  175  A    between atoms: _414  and  _416
REMARK  176  A    between atoms: _416  and  _417
REMARK  177  A    between atoms: _416  and  _419
REMARK  178  A    between atoms: _419  and  _420
REMARK  179  A    between atoms: _426  and  _428
REMARK  180  A    between atoms: _428  and  _429
REMARK  181  A    between atoms: _428  and  _431
REMARK  182  A    between atoms: _434  and  _436
REMARK  183  A    between atoms: _436  and  _437
REMARK  184  A    between atoms: _436  and  _439
REMARK  185  A    between atoms: _439  and  _440
REMARK  186  A    between atoms: _443  and  _445
REMARK  187  A    between atoms: _445  and  _446
REMARK  188  A    between atoms: _449  and  _451
REMARK  189  A    between atoms: _451  and  _452
REMARK  190  A    between atoms: _451  and  _454
REMARK  191  A    between atoms: _454  and  _455
REMARK  192  A    between atoms: _460  and  _462
REMARK  193  A    between atoms: _462  and  _463
REMARK  194  A    between atoms: _462  and  _465
REMARK  195  A    between atoms: _465  and  _466
REMARK  196  A    between atoms: _466  and  _467
REMARK  197  A    between atoms: _467  and  _468
REMARK  198  A    between atoms: _468  and  _469
REMARK  199  A    between atoms: _473  and  _475
REMARK  200  A    between atoms: _475  and  _476
REMARK  201  A    between atoms: _475  and  _478
REMARK  202  A    between atoms: _478  and  _479
REMARK  203  A    between atoms: _482  and  _484
REMARK  204  A    between atoms: _484  and  _485
REMARK  205  A    between atoms: _487  and  _489
REMARK  206  A    between atoms: _489  and  _490
REMARK  207  A    between atoms: _489  and  _492
REMARK  208  A    between atoms: _492  and  _493
REMARK  209  A    between atoms: _498  and  _499
REMARK  210  A    between atoms: _501  and  _503
REMARK  211  A    between atoms: _503  and  _504
REMARK  212  A    between atoms: _503  and  _506
REMARK  213  A    between atoms: _506  and  _507
REMARK  214  A    between atoms: _512  and  _513
REMARK  215  A    between atoms: _515  and  _517
REMARK  216  A    between atoms: _517  and  _518
REMARK  217  A    between atoms: _517  and  _520
REMARK  218  A    between atoms: _520  and  _521
REMARK  219  A    between atoms: _524  and  _526
REMARK  220  A    between atoms: _526  and  _527
REMARK  221  A    between atoms: _526  and  _529
REMARK  222  A    between atoms: _529  and  _530
REMARK  223  A    between atoms: _535  and  _537
REMARK  224  A    between atoms: _537  and  _538
REMARK  225  A    between atoms: _537  and  _540
REMARK  226  A    between atoms: _540  and  _541
REMARK  227  A    between atoms: _541  and  _542
REMARK  228  A    between atoms: _542  and  _543
REMARK  229  A    between atoms: _552  and  _554
REMARK  230  A    between atoms: _554  and  _555
REMARK  231  A    between atoms: _554  and  _557
REMARK  232  A    between atoms: _557  and  _558
REMARK  233  A    between atoms: _563  and  _564
REMARK  234  A    between atoms: _566  and  _568
REMARK  235  A    between atoms: _568  and  _569
REMARK  236  A    between atoms: _568  and  _571
REMARK  237  A    between atoms: _571  and  _572
REMARK                            x       y       z     vdW  Elec       q    Type
REMARK                         _______ _______ _______ _____ _____    ______ ____
ROOT
ATOM      1  O   HOH     1      -6.020  -1.959 -24.362  0.00  0.00    +0.000 OA
ENDROOT
TORSDOF 0
REMARK  Name = ../refined-set-2016/4ymg/4ymg_pocket.pdb
REMARK  237 active torsions:
REMARK  status: ('A' for Active; 'I' for Inactive)
REMARK    1  A    between atoms: _1  and  _3
REMARK    2  A    between atoms: _3  and  _4
REMARK    3  A    between atoms: _3  and  _6
REMARK    4  A    between atoms: _6  and  _7
REMARK    5  A    between atoms: _12  and  _14
REMARK    6  A    between atoms: _14  and  _15
REMARK    7  A    between atoms: _14  and  _17
REMARK    8  A    between atoms: _17  and  _18
REMARK    9  A    between atoms: _28  and  _30
REMARK   10  A    between atoms: _30  and  _31
REMARK   11  A    between atoms: _30  and  _33
REMARK   12  A    between atoms: _33  and  _34
REMARK   13  A    between atoms: _37  and  _39
REMARK   14  A    between atoms: _39  and  _40
REMARK   15  A    between atoms: _39  and  _42
REMARK   16  A    between atoms: _42  and  _43
REMARK   17  A    between atoms: _46  and  _48
REMARK   18  A    between atoms: _48  and  _49
REMARK   19  A    between atoms: _52  and  _54
REMARK   20  A    between atoms: _54  and  _55
REMARK   21  A    between atoms: _54  and  _57
REMARK   22  A    between atoms: _57  and  _58
REMARK   23  A    between atoms: _61  and  _63
REMARK   24  A    between atoms: _63  and  _64
REMARK   25  A    between atoms: _63  and  _66
REMARK   26  A    between atoms: _66  and  _67
REMARK   27  A    between atoms: _67  and  _68
REMARK   28  A    between atoms: _68  and  _69
REMARK   29  A    between atoms: _69  and  _70
REMARK   30  A    between atoms: _74  and  _76
REMARK   31  A    between atoms: _76  and  _77
REMARK   32  A    between atoms: _76  and  _79
REMARK   33  A    between atoms: _79  and  _80
REMARK   34  A    between atoms: _80  and  _81
REMARK   35  A    between atoms: _83  and  _85
REMARK   36  A    between atoms: _85  and  _86
REMARK   37  A    between atoms: _85  and  _88
REMARK   38  A    between atoms: _88  and  _89
REMARK   39  A    between atoms: _91  and  _93
REMARK   40  A    between atoms: _93  and  _94
REMARK   41  A    between atoms: _93  and  _96
REMARK   42  A    between atoms: _96  and  _97
REMARK   43  A    between atoms: _99  and  _101
REMARK   44  A    between atoms: _101  and  _102
REMARK   45  A    between atoms: _101  and  _104
REMARK   46  A    between atoms: _104  and  _105
REMARK   47  A    between atoms: _105  and  _106
REMARK   48  A    between atoms: _111  and  _113
REMARK   49  A    between atoms: _113  and  _114
REMARK   50  A    between atoms: _116  and  _118
REMARK   51  A    between atoms: _118  and  _119
REMARK   52  A    between atoms: _118  and  _121
REMARK   53  A    between atoms: _121  and  _122
REMARK   54  A    between atoms: _122  and  _123
REMARK   55  A    between atoms: _125  and  _127
REMARK   56  A    between atoms: _127  and  _128
REMARK   57  A    between atoms: _127  and  _130
REMARK   58  A    between atoms: _130  and  _131
REMARK   59  A    between atoms: _131  and  _132
REMARK   60  A    between atoms: _135  and  _137
REMARK   61  A    between atoms: _137  and  _138
REMARK   62  A    between atoms: _137  and  _140
REMARK   63  A    between atoms: _140  and  _141
REMARK   64  A    between atoms: _144  and  _146
REMARK   65  A    between atoms: _146  and  _147
REMARK   66  A    between atoms: _149  and  _151
REMARK   67  A    between atoms: _151  and  _152
REMARK   68  A    between atoms: _151  and  _154
REMARK   69  A    between atoms: _156  and  _158
REMARK   70  A    between atoms: _158  and  _159
REMARK   71  A    between atoms: _158  and  _161
REMARK   72  A    between atoms: _161  and  _162
REMARK   73  A    between atoms: _167  and  _168
REMARK   74  A    between atoms: _170  and  _172
REMARK   75  A    between atoms: _172  and  _173
REMARK   76  A    between atoms: _172  and  _175
REMARK   77  A    between atoms: _175  and  _176
REMARK   78  A    between atoms: _178  and  _180
REMARK   79  A    between atoms: _180  and  _181
REMARK   80  A    between atoms: _183  and  _185
REMARK   81  A    between atoms: _185  and  _186
REMARK   82  A    between atoms: _185  and  _188
REMARK   83  A    between atoms: _188  and  _189
REMARK   84  A    between atoms: _194  and  _195
REMARK   85  A    between atoms: _197  and  _199
REMARK   86  A    between atoms: _199  and  _200
REMARK   87  A    between atoms: _199  and  _202
REMARK   88  A    between atoms: _202  and  _203
REMARK   89  A    between atoms: _205  and  _207
REMARK   90  A    between atoms: _207  and  _208
REMARK   91  A    between atoms: _211  and  _213
REMARK   92  A    between atoms: _213  and  _214
REMARK   93  A    between atoms: _213  and  _216
REMARK   94  A    between atoms: _216  and  _217
REMARK   95  A    between atoms: _220  and  _222
REMARK   96  A    between atoms: _222  and  _223
REMARK   97  A    between atoms: _226  and  _228
REMARK   98  A    between atoms: _228  and  _229
REMARK   99  A    between atoms: _228  and  _231
REMARK  100  A    between atoms: _231  and  _232
REMARK  101  A    between atoms: _242  and  _244
REMARK  102  A    between atoms: _244  and  _245
REMARK  103  A    between atoms: _244  and  _247
REMARK  104  A    between atoms: _247  and  _248
REMARK  105  A    between atoms: _251  and  _253
REMARK  106  A    between atoms: _253  and  _254
REMARK  107  A    between atoms: _253  and  _256
REMARK  108  A    between atoms: _256  and  _257
REMARK  109  A    between atoms: _260  and  _262
REMARK  110  A    between atoms: _262  and  _263
REMARK  111  A    between atoms: _262  and  _265
REMARK  112  A    between atoms: _265  and  _266
REMARK  113  A    between atoms: _266  and  _267
REMARK  114  A    between atoms: _270  and  _272
REMARK  115  A    between atoms: _272  and  _273
REMARK  116  A    between atoms: _272  and  _275
REMARK  117  A    between atoms: _275  and  _276
REMARK  118  A    between atoms: _281  and  _282
REMARK  119  A    between atoms: _284  and  _286
REMARK  120  A    between atoms: _286  and  _287
REMARK  121  A    between atoms: _286  and  _289
REMARK  122  A    between atoms: _289  and  _290
REMARK  123  A    between atoms: _293  and  _294
REMARK  124  A    between atoms: _299  and  _301
REMARK  125  A    between atoms: _301  and  _302
REMARK  126  A    between atoms: _301  and  _304
REMARK  127  A    between atoms: _304  and  _305
REMARK  128  A    between atoms: _305  and  _306
REMARK  129  A    between atoms: _306  and  _307
REMARK  130  A    between atoms: _307  and  _308
REMARK  131  A    between atoms: _312  and  _314
REMARK  132  A    between atoms: _314  and  _315
REMARK  133  A    between atoms: _314  and  _317
REMARK  134  A    between atoms: _317  and  _318
REMARK  135  A    between atoms: _318  and  _319
REMARK  136  A    between atoms: _321  and  _323
REMARK  137  A    between atoms: _323  and  _324
REMARK  138  A    between atoms: _323  and  _326
REMARK  139  A    between atoms: _326  and  _327
REMARK  140  A    between atoms: _330  and  _332
REMARK  141  A    between atoms: _332  and  _333
REMARK  142  A    between atoms: _332  and  _335
REMARK  143  A    between atoms: _335  and  _336
REMARK  144  A    between atoms: _338  and  _340
REMARK  145  A    between atoms: _340  and  _341
REMARK  146  A    between atoms: _340  and  _343
REMARK  147  A    between atoms: _343  and  _344
REMARK  148  A    between atoms: _347  and  _349
REMARK  149  A    between atoms: _349  and  _350
REMARK  150  A    between atoms: _349  and  _352
REMARK  151  A    between atoms: _352  and  _353
REMARK  152  A    between atoms: _353  and  _354
REMARK  153  A    between atoms: _357  and  _359
REMARK  154  A    between atoms: _359  and  _360
REMARK  155  A    between atoms: _363  and  _364
REMARK  156  A    between atoms: _369  and  _371
REMARK  157  A    between atoms: _371  and  _372
REMARK  158  A    between atoms: _375  and  _377
REMARK  159  A    between atoms: _377  and  _378
REMARK  160  A    between atoms: _377  and  _380
REMARK  161  A    between atoms: _380  and  _381
REMARK  162  A    between atoms: _381  and  _382
REMARK  163  A    between atoms: _385  and  _387
REMARK  164  A    between atoms: _387  and  _388
REMARK  165  A    between atoms: _387  and  _390
REMARK  166  A    between atoms: _390  and  _391
REMARK  167  A    between atoms: _396  and  _398
REMARK  168  A    between atoms: _398  and  _399
REMARK  169  A    between atoms: _398  and  _401
REMARK  170  A    between atoms: _401  and  _402
REMARK  171  A    between atoms: _405  and  _407
REMARK  172  A    between atoms: _407  and  _408
REMARK  173  A    between atoms: _407  and  _410
REMARK  174  A    between atoms: _410  and  _411
REMARK  175  A    between atoms: _414  and  _416
REMARK  176  A    between atoms: _416  and  _417
REMARK  177  A    between atoms: _416  and  _419
REMARK  178  A    between atoms: _419  and  _420
REMARK  179  A    between atoms: _426  and  _428
REMARK  180  A    between atoms: _428  and  _429
REMARK  181  A    between atoms: _428  and  _431
REMARK  182  A    between atoms: _434  and  _436
REMARK  183  A    between atoms: _436  and  _437
REMARK  184  A    between atoms: _436  and  _439
REMARK  185  A    between atoms: _439  and  _440
REMARK  186  A    between atoms: _443  and  _445
REMARK  187  A    between atoms: _445  and  _446
REMARK  188  A    between atoms: _449  and  _451
REMARK  189  A    between atoms: _451  and  _452
REMARK  190  A    between atoms: _451  and  _454
REMARK  191  A    between atoms: _454  and  _455
REMARK  192  A    between atoms: _460  and  _462
REMARK  193  A    between atoms: _462  and  _463
REMARK  194  A    between atoms: _462  and  _465
REMARK  195  A    between atoms: _465  and  _466
REMARK  196  A    between atoms: _466  and  _467
REMARK  197  A    between atoms: _467  and  _468
REMARK  198  A    between atoms: _468  and  _469
REMARK  199  A    between atoms: _473  and  _475
REMARK  200  A    between atoms: _475  and  _476
REMARK  201  A    between atoms: _475  and  _478
REMARK  202  A    between atoms: _478  and  _479
REMARK  203  A    between atoms: _482  and  _484
REMARK  204  A    between atoms: _484  and  _485
REMARK  205  A    between atoms: _487  and  _489
REMARK  206  A    between atoms: _489  and  _490
REMARK  207  A    between atoms: _489  and  _492
REMARK  208  A    between atoms: _492  and  _493
REMARK  209  A    between atoms: _498  and  _499
REMARK  210  A    between atoms: _501  and  _503
REMARK  211  A    between atoms: _503  and  _504
REMARK  212  A    between atoms: _503  and  _506
REMARK  213  A    between atoms: _506  and  _507
REMARK  214  A    between atoms: _512  and  _513
REMARK  215  A    between atoms: _515  and  _517
REMARK  216  A    between atoms: _517  and  _518
REMARK  217  A    between atoms: _517  and  _520
REMARK  218  A    between atoms: _520  and  _521
REMARK  219  A    between atoms: _524  and  _526
REMARK  220  A    between atoms: _526  and  _527
REMARK  221  A    between atoms: _526  and  _529
REMARK  222  A    between atoms: _529  and  _530
REMARK  223  A    between atoms: _535  and  _537
REMARK  224  A    between atoms: _537  and  _538
REMARK  225  A    between atoms: _537  and  _540
REMARK  226  A    between atoms: _540  and  _541
REMARK  227  A    between atoms: _541  and  _542
REMARK  228  A    between atoms: _542  and  _543
REMARK  229  A    between atoms: _552  and  _554
REMARK  230  A    between atoms: _554  and  _555
REMARK  231  A    between atoms: _554  and  _557
REMARK  232  A    between atoms: _557  and  _558
REMARK  233  A    between atoms: _563  and  _564
REMARK  234  A    between atoms: _566  and  _568
REMARK  235  A    between atoms: _568  and  _569
REMARK  236  A    between atoms: _568  and  _571
REMARK  237  A    between atoms: _571  and  _572
REMARK                            x       y       z     vdW  Elec       q    Type
REMARK                         _______ _______ _______ _____ _____    ______ ____
ROOT
ATOM      1  O   HOH     1      -9.459   3.176 -26.803  0.00  0.00    +0.000 OA
ENDROOT
TORSDOF 0
REMARK  Name = ../refined-set-2016/4ymg/4ymg_pocket.pdb
REMARK  237 active torsions:
REMARK  status: ('A' for Active; 'I' for Inactive)
REMARK    1  A    between atoms: _1  and  _3
REMARK    2  A    between atoms: _3  and  _4
REMARK    3  A    between atoms: _3  and  _6
REMARK    4  A    between atoms: _6  and  _7
REMARK    5  A    between atoms: _12  and  _14
REMARK    6  A    between atoms: _14  and  _15
REMARK    7  A    between atoms: _14  and  _17
REMARK    8  A    between atoms: _17  and  _18
REMARK    9  A    between atoms: _28  and  _30
REMARK   10  A    between atoms: _30  and  _31
REMARK   11  A    between atoms: _30  and  _33
REMARK   12  A    between atoms: _33  and  _34
REMARK   13  A    between atoms: _37  and  _39
REMARK   14  A    between atoms: _39  and  _40
REMARK   15  A    between atoms: _39  and  _42
REMARK   16  A    between atoms: _42  and  _43
REMARK   17  A    between atoms: _46  and  _48
REMARK   18  A    between atoms: _48  and  _49
REMARK   19  A    between atoms: _52  and  _54
REMARK   20  A    between atoms: _54  and  _55
REMARK   21  A    between atoms: _54  and  _57
REMARK   22  A    between atoms: _57  and  _58
REMARK   23  A    between atoms: _61  and  _63
REMARK   24  A    between atoms: _63  and  _64
REMARK   25  A    between atoms: _63  and  _66
REMARK   26  A    between atoms: _66  and  _67
REMARK   27  A    between atoms: _67  and  _68
REMARK   28  A    between atoms: _68  and  _69
REMARK   29  A    between atoms: _69  and  _70
REMARK   30  A    between atoms: _74  and  _76
REMARK   31  A    between atoms: _76  and  _77
REMARK   32  A    between atoms: _76  and  _79
REMARK   33  A    between atoms: _79  and  _80
REMARK   34  A    between atoms: _80  and  _81
REMARK   35  A    between atoms: _83  and  _85
REMARK   36  A    between atoms: _85  and  _86
REMARK   37  A    between atoms: _85  and  _88
REMARK   38  A    between atoms: _88  and  _89
REMARK   39  A    between atoms: _91  and  _93
REMARK   40  A    between atoms: _93  and  _94
REMARK   41  A    between atoms: _93  and  _96
REMARK   42  A    between atoms: _96  and  _97
REMARK   43  A    between atoms: _99  and  _101
REMARK   44  A    between atoms: _101  and  _102
REMARK   45  A    between atoms: _101  and  _104
REMARK   46  A    between atoms: _104  and  _105
REMARK   47  A    between atoms: _105  and  _106
REMARK   48  A    between atoms: _111  and  _113
REMARK   49  A    between atoms: _113  and  _114
REMARK   50  A    between atoms: _116  and  _118
REMARK   51  A    between atoms: _118  and  _119
REMARK   52  A    between atoms: _118  and  _121
REMARK   53  A    between atoms: _121  and  _122
REMARK   54  A    between atoms: _122  and  _123
REMARK   55  A    between atoms: _125  and  _127
REMARK   56  A    between atoms: _127  and  _128
REMARK   57  A    between atoms: _127  and  _130
REMARK   58  A    between atoms: _130  and  _131
REMARK   59  A    between atoms: _131  and  _132
REMARK   60  A    between atoms: _135  and  _137
REMARK   61  A    between atoms: _137  and  _138
REMARK   62  A    between atoms: _137  and  _140
REMARK   63  A    between atoms: _140  and  _141
REMARK   64  A    between atoms: _144  and  _146
REMARK   65  A    between atoms: _146  and  _147
REMARK   66  A    between atoms: _149  and  _151
REMARK   67  A    between atoms: _151  and  _152
REMARK   68  A    between atoms: _151  and  _154
REMARK   69  A    between atoms: _156  and  _158
REMARK   70  A    between atoms: _158  and  _159
REMARK   71  A    between atoms: _158  and  _161
REMARK   72  A    between atoms: _161  and  _162
REMARK   73  A    between atoms: _167  and  _168
REMARK   74  A    between atoms: _170  and  _172
REMARK   75  A    between atoms: _172  and  _173
REMARK   76  A    between atoms: _172  and  _175
REMARK   77  A    between atoms: _175  and  _176
REMARK   78  A    between atoms: _178  and  _180
REMARK   79  A    between atoms: _180  and  _181
REMARK   80  A    between atoms: _183  and  _185
REMARK   81  A    between atoms: _185  and  _186
REMARK   82  A    between atoms: _185  and  _188
REMARK   83  A    between atoms: _188  and  _189
REMARK   84  A    between atoms: _194  and  _195
REMARK   85  A    between atoms: _197  and  _199
REMARK   86  A    between atoms: _199  and  _200
REMARK   87  A    between atoms: _199  and  _202
REMARK   88  A    between atoms: _202  and  _203
REMARK   89  A    between atoms: _205  and  _207
REMARK   90  A    between atoms: _207  and  _208
REMARK   91  A    between atoms: _211  and  _213
REMARK   92  A    between atoms: _213  and  _214
REMARK   93  A    between atoms: _213  and  _216
REMARK   94  A    between atoms: _216  and  _217
REMARK   95  A    between atoms: _220  and  _222
REMARK   96  A    between atoms: _222  and  _223
REMARK   97  A    between atoms: _226  and  _228
REMARK   98  A    between atoms: _228  and  _229
REMARK   99  A    between atoms: _228  and  _231
REMARK  100  A    between atoms: _231  and  _232
REMARK  101  A    between atoms: _242  and  _244
REMARK  102  A    between atoms: _244  and  _245
REMARK  103  A    between atoms: _244  and  _247
REMARK  104  A    between atoms: _247  and  _248
REMARK  105  A    between atoms: _251  and  _253
REMARK  106  A    between atoms: _253  and  _254
REMARK  107  A    between atoms: _253  and  _256
REMARK  108  A    between atoms: _256  and  _257
REMARK  109  A    between atoms: _260  and  _262
REMARK  110  A    between atoms: _262  and  _263
REMARK  111  A    between atoms: _262  and  _265
REMARK  112  A    between atoms: _265  and  _266
REMARK  113  A    between atoms: _266  and  _267
REMARK  114  A    between atoms: _270  and  _272
REMARK  115  A    between atoms: _272  and  _273
REMARK  116  A    between atoms: _272  and  _275
REMARK  117  A    between atoms: _275  and  _276
REMARK  118  A    between atoms: _281  and  _282
REMARK  119  A    between atoms: _284  and  _286
REMARK  120  A    between atoms: _286  and  _287
REMARK  121  A    between atoms: _286  and  _289
REMARK  122  A    between atoms: _289  and  _290
REMARK  123  A    between atoms: _293  and  _294
REMARK  124  A    between atoms: _299  and  _301
REMARK  125  A    between atoms: _301  and  _302
REMARK  126  A    between atoms: _301  and  _304
REMARK  127  A    between atoms: _304  and  _305
REMARK  128  A    between atoms: _305  and  _306
REMARK  129  A    between atoms: _306  and  _307
REMARK  130  A    between atoms: _307  and  _308
REMARK  131  A    between atoms: _312  and  _314
REMARK  132  A    between atoms: _314  and  _315
REMARK  133  A    between atoms: _314  and  _317
REMARK  134  A    between atoms: _317  and  _318
REMARK  135  A    between atoms: _318  and  _319
REMARK  136  A    between atoms: _321  and  _323
REMARK  137  A    between atoms: _323  and  _324
REMARK  138  A    between atoms: _323  and  _326
REMARK  139  A    between atoms: _326  and  _327
REMARK  140  A    between atoms: _330  and  _332
REMARK  141  A    between atoms: _332  and  _333
REMARK  142  A    between atoms: _332  and  _335
REMARK  143  A    between atoms: _335  and  _336
REMARK  144  A    between atoms: _338  and  _340
REMARK  145  A    between atoms: _340  and  _341
REMARK  146  A    between atoms: _340  and  _343
REMARK  147  A    between atoms: _343  and  _344
REMARK  148  A    between atoms: _347  and  _349
REMARK  149  A    between atoms: _349  and  _350
REMARK  150  A    between atoms: _349  and  _352
REMARK  151  A    between atoms: _352  and  _353
REMARK  152  A    between atoms: _353  and  _354
REMARK  153  A    between atoms: _357  and  _359
REMARK  154  A    between atoms: _359  and  _360
REMARK  155  A    between atoms: _363  and  _364
REMARK  156  A    between atoms: _369  and  _371
REMARK  157  A    between atoms: _371  and  _372
REMARK  158  A    between atoms: _375  and  _377
REMARK  159  A    between atoms: _377  and  _378
REMARK  160  A    between atoms: _377  and  _380
REMARK  161  A    between atoms: _380  and  _381
REMARK  162  A    between atoms: _381  and  _382
REMARK  163  A    between atoms: _385  and  _387
REMARK  164  A    between atoms: _387  and  _388
REMARK  165  A    between atoms: _387  and  _390
REMARK  166  A    between atoms: _390  and  _391
REMARK  167  A    between atoms: _396  and  _398
REMARK  168  A    between atoms: _398  and  _399
REMARK  169  A    between atoms: _398  and  _401
REMARK  170  A    between atoms: _401  and  _402
REMARK  171  A    between atoms: _405  and  _407
REMARK  172  A    between atoms: _407  and  _408
REMARK  173  A    between atoms: _407  and  _410
REMARK  174  A    between atoms: _410  and  _411
REMARK  175  A    between atoms: _414  and  _416
REMARK  176  A    between atoms: _416  and  _417
REMARK  177  A    between atoms: _416  and  _419
REMARK  178  A    between atoms: _419  and  _420
REMARK  179  A    between atoms: _426  and  _428
REMARK  180  A    between atoms: _428  and  _429
REMARK  181  A    between atoms: _428  and  _431
REMARK  182  A    between atoms: _434  and  _436
REMARK  183  A    between atoms: _436  and  _437
REMARK  184  A    between atoms: _436  and  _439
REMARK  185  A    between atoms: _439  and  _440
REMARK  186  A    between atoms: _443  and  _445
REMARK  187  A    between atoms: _445  and  _446
REMARK  188  A    between atoms: _449  and  _451
REMARK  189  A    between atoms: _451  and  _452
REMARK  190  A    between atoms: _451  and  _454
REMARK  191  A    between atoms: _454  and  _455
REMARK  192  A    between atoms: _460  and  _462
REMARK  193  A    between atoms: _462  and  _463
REMARK  194  A    between atoms: _462  and  _465
REMARK  195  A    between atoms: _465  and  _466
REMARK  196  A    between atoms: _466  and  _467
REMARK  197  A    between atoms: _467  and  _468
REMARK  198  A    between atoms: _468  and  _469
REMARK  199  A    between atoms: _473  and  _475
REMARK  200  A    between atoms: _475  and  _476
REMARK  201  A    between atoms: _475  and  _478
REMARK  202  A    between atoms: _478  and  _479
REMARK  203  A    between atoms: _482  and  _484
REMARK  204  A    between atoms: _484  and  _485
REMARK  205  A    between atoms: _487  and  _489
REMARK  206  A    between atoms: _489  and  _490
REMARK  207  A    between atoms: _489  and  _492
REMARK  208  A    between atoms: _492  and  _493
REMARK  209  A    between atoms: _498  and  _499
REMARK  210  A    between atoms: _501  and  _503
REMARK  211  A    between atoms: _503  and  _504
REMARK  212  A    between atoms: _503  and  _506
REMARK  213  A    between atoms: _506  and  _507
REMARK  214  A    between atoms: _512  and  _513
REMARK  215  A    between atoms: _515  and  _517
REMARK  216  A    between atoms: _517  and  _518
REMARK  217  A    between atoms: _517  and  _520
REMARK  218  A    between atoms: _520  and  _521
REMARK  219  A    between atoms: _524  and  _526
REMARK  220  A    between atoms: _526  and  _527
REMARK  221  A    between atoms: _526  and  _529
REMARK  222  A    between atoms: _529  and  _530
REMARK  223  A    between atoms: _535  and  _537
REMARK  224  A    between atoms: _537  and  _538
REMARK  225  A    between atoms: _537  and  _540
REMARK  226  A    between atoms: _540  and  _541
REMARK  227  A    between atoms: _541  and  _542
REMARK  228  A    between atoms: _542  and  _543
REMARK  229  A    between atoms: _552  and  _554
REMARK  230  A    between atoms: _554  and  _555
REMARK  231  A    between atoms: _554  and  _557
REMARK  232  A    between atoms: _557  and  _558
REMARK  233  A    between atoms: _563  and  _564
REMARK  234  A    between atoms: _566  and  _568
REMARK  235  A    between atoms: _568  and  _569
REMARK  236  A    between atoms: _568  and  _571
REMARK  237  A    between atoms: _571  and  _572
REMARK                            x       y       z     vdW  Elec       q    Type
REMARK                         _______ _______ _______ _____ _____    ______ ____
ROOT
ATOM      1  O   HOH     1      -7.736   2.292 -24.989  0.00  0.00    +0.000 OA
ENDROOT
TORSDOF 0
REMARK  Name = ../refined-set-2016/4ymg/4ymg_pocket.pdb
REMARK  237 active torsions:
REMARK  status: ('A' for Active; 'I' for Inactive)
REMARK    1  A    between atoms: _1  and  _3
REMARK    2  A    between atoms: _3  and  _4
REMARK    3  A    between atoms: _3  and  _6
REMARK    4  A    between atoms: _6  and  _7
REMARK    5  A    between atoms: _12  and  _14
REMARK    6  A    between atoms: _14  and  _15
REMARK    7  A    between atoms: _14  and  _17
REMARK    8  A    between atoms: _17  and  _18
REMARK    9  A    between atoms: _28  and  _30
REMARK   10  A    between atoms: _30  and  _31
REMARK   11  A    between atoms: _30  and  _33
REMARK   12  A    between atoms: _33  and  _34
REMARK   13  A    between atoms: _37  and  _39
REMARK   14  A    between atoms: _39  and  _40
REMARK   15  A    between atoms: _39  and  _42
REMARK   16  A    between atoms: _42  and  _43
REMARK   17  A    between atoms: _46  and  _48
REMARK   18  A    between atoms: _48  and  _49
REMARK   19  A    between atoms: _52  and  _54
REMARK   20  A    between atoms: _54  and  _55
REMARK   21  A    between atoms: _54  and  _57
REMARK   22  A    between atoms: _57  and  _58
REMARK   23  A    between atoms: _61  and  _63
REMARK   24  A    between atoms: _63  and  _64
REMARK   25  A    between atoms: _63  and  _66
REMARK   26  A    between atoms: _66  and  _67
REMARK   27  A    between atoms: _67  and  _68
REMARK   28  A    between atoms: _68  and  _69
REMARK   29  A    between atoms: _69  and  _70
REMARK   30  A    between atoms: _74  and  _76
REMARK   31  A    between atoms: _76  and  _77
REMARK   32  A    between atoms: _76  and  _79
REMARK   33  A    between atoms: _79  and  _80
REMARK   34  A    between atoms: _80  and  _81
REMARK   35  A    between atoms: _83  and  _85
REMARK   36  A    between atoms: _85  and  _86
REMARK   37  A    between atoms: _85  and  _88
REMARK   38  A    between atoms: _88  and  _89
REMARK   39  A    between atoms: _91  and  _93
REMARK   40  A    between atoms: _93  and  _94
REMARK   41  A    between atoms: _93  and  _96
REMARK   42  A    between atoms: _96  and  _97
REMARK   43  A    between atoms: _99  and  _101
REMARK   44  A    between atoms: _101  and  _102
REMARK   45  A    between atoms: _101  and  _104
REMARK   46  A    between atoms: _104  and  _105
REMARK   47  A    between atoms: _105  and  _106
REMARK   48  A    between atoms: _111  and  _113
REMARK   49  A    between atoms: _113  and  _114
REMARK   50  A    between atoms: _116  and  _118
REMARK   51  A    between atoms: _118  and  _119
REMARK   52  A    between atoms: _118  and  _121
REMARK   53  A    between atoms: _121  and  _122
REMARK   54  A    between atoms: _122  and  _123
REMARK   55  A    between atoms: _125  and  _127
REMARK   56  A    between atoms: _127  and  _128
REMARK   57  A    between atoms: _127  and  _130
REMARK   58  A    between atoms: _130  and  _131
REMARK   59  A    between atoms: _131  and  _132
REMARK   60  A    between atoms: _135  and  _137
REMARK   61  A    between atoms: _137  and  _138
REMARK   62  A    between atoms: _137  and  _140
REMARK   63  A    between atoms: _140  and  _141
REMARK   64  A    between atoms: _144  and  _146
REMARK   65  A    between atoms: _146  and  _147
REMARK   66  A    between atoms: _149  and  _151
REMARK   67  A    between atoms: _151  and  _152
REMARK   68  A    between atoms: _151  and  _154
REMARK   69  A    between atoms: _156  and  _158
REMARK   70  A    between atoms: _158  and  _159
REMARK   71  A    between atoms: _158  and  _161
REMARK   72  A    between atoms: _161  and  _162
REMARK   73  A    between atoms: _167  and  _168
REMARK   74  A    between atoms: _170  and  _172
REMARK   75  A    between atoms: _172  and  _173
REMARK   76  A    between atoms: _172  and  _175
REMARK   77  A    between atoms: _175  and  _176
REMARK   78  A    between atoms: _178  and  _180
REMARK   79  A    between atoms: _180  and  _181
REMARK   80  A    between atoms: _183  and  _185
REMARK   81  A    between atoms: _185  and  _186
REMARK   82  A    between atoms: _185  and  _188
REMARK   83  A    between atoms: _188  and  _189
REMARK   84  A    between atoms: _194  and  _195
REMARK   85  A    between atoms: _197  and  _199
REMARK   86  A    between atoms: _199  and  _200
REMARK   87  A    between atoms: _199  and  _202
REMARK   88  A    between atoms: _202  and  _203
REMARK   89  A    between atoms: _205  and  _207
REMARK   90  A    between atoms: _207  and  _208
REMARK   91  A    between atoms: _211  and  _213
REMARK   92  A    between atoms: _213  and  _214
REMARK   93  A    between atoms: _213  and  _216
REMARK   94  A    between atoms: _216  and  _217
REMARK   95  A    between atoms: _220  and  _222
REMARK   96  A    between atoms: _222  and  _223
REMARK   97  A    between atoms: _226  and  _228
REMARK   98  A    between atoms: _228  and  _229
REMARK   99  A    between atoms: _228  and  _231
REMARK  100  A    between atoms: _231  and  _232
REMARK  101  A    between atoms: _242  and  _244
REMARK  102  A    between atoms: _244  and  _245
REMARK  103  A    between atoms: _244  and  _247
REMARK  104  A    between atoms: _247  and  _248
REMARK  105  A    between atoms: _251  and  _253
REMARK  106  A    between atoms: _253  and  _254
REMARK  107  A    between atoms: _253  and  _256
REMARK  108  A    between atoms: _256  and  _257
REMARK  109  A    between atoms: _260  and  _262
REMARK  110  A    between atoms: _262  and  _263
REMARK  111  A    between atoms: _262  and  _265
REMARK  112  A    between atoms: _265  and  _266
REMARK  113  A    between atoms: _266  and  _267
REMARK  114  A    between atoms: _270  and  _272
REMARK  115  A    between atoms: _272  and  _273
REMARK  116  A    between atoms: _272  and  _275
REMARK  117  A    between atoms: _275  and  _276
REMARK  118  A    between atoms: _281  and  _282
REMARK  119  A    between atoms: _284  and  _286
REMARK  120  A    between atoms: _286  and  _287
REMARK  121  A    between atoms: _286  and  _289
REMARK  122  A    between atoms: _289  and  _290
REMARK  123  A    between atoms: _293  and  _294
REMARK  124  A    between atoms: _299  and  _301
REMARK  125  A    between atoms: _301  and  _302
REMARK  126  A    between atoms: _301  and  _304
REMARK  127  A    between atoms: _304  and  _305
REMARK  128  A    between atoms: _305  and  _306
REMARK  129  A    between atoms: _306  and  _307
REMARK  130  A    between atoms: _307  and  _308
REMARK  131  A    between atoms: _312  and  _314
REMARK  132  A    between atoms: _314  and  _315
REMARK  133  A    between atoms: _314  and  _317
REMARK  134  A    between atoms: _317  and  _318
REMARK  135  A    between atoms: _318  and  _319
REMARK  136  A    between atoms: _321  and  _323
REMARK  137  A    between atoms: _323  and  _324
REMARK  138  A    between atoms: _323  and  _326
REMARK  139  A    between atoms: _326  and  _327
REMARK  140  A    between atoms: _330  and  _332
REMARK  141  A    between atoms: _332  and  _333
REMARK  142  A    between atoms: _332  and  _335
REMARK  143  A    between atoms: _335  and  _336
REMARK  144  A    between atoms: _338  and  _340
REMARK  145  A    between atoms: _340  and  _341
REMARK  146  A    between atoms: _340  and  _343
REMARK  147  A    between atoms: _343  and  _344
REMARK  148  A    between atoms: _347  and  _349
REMARK  149  A    between atoms: _349  and  _350
REMARK  150  A    between atoms: _349  and  _352
REMARK  151  A    between atoms: _352  and  _353
REMARK  152  A    between atoms: _353  and  _354
REMARK  153  A    between atoms: _357  and  _359
REMARK  154  A    between atoms: _359  and  _360
REMARK  155  A    between atoms: _363  and  _364
REMARK  156  A    between atoms: _369  and  _371
REMARK  157  A    between atoms: _371  and  _372
REMARK  158  A    between atoms: _375  and  _377
REMARK  159  A    between atoms: _377  and  _378
REMARK  160  A    between atoms: _377  and  _380
REMARK  161  A    between atoms: _380  and  _381
REMARK  162  A    between atoms: _381  and  _382
REMARK  163  A    between atoms: _385  and  _387
REMARK  164  A    between atoms: _387  and  _388
REMARK  165  A    between atoms: _387  and  _390
REMARK  166  A    between atoms: _390  and  _391
REMARK  167  A    between atoms: _396  and  _398
REMARK  168  A    between atoms: _398  and  _399
REMARK  169  A    between atoms: _398  and  _401
REMARK  170  A    between atoms: _401  and  _402
REMARK  171  A    between atoms: _405  and  _407
REMARK  172  A    between atoms: _407  and  _408
REMARK  173  A    between atoms: _407  and  _410
REMARK  174  A    between atoms: _410  and  _411
REMARK  175  A    between atoms: _414  and  _416
REMARK  176  A    between atoms: _416  and  _417
REMARK  177  A    between atoms: _416  and  _419
REMARK  178  A    between atoms: _419  and  _420
REMARK  179  A    between atoms: _426  and  _428
REMARK  180  A    between atoms: _428  and  _429
REMARK  181  A    between atoms: _428  and  _431
REMARK  182  A    between atoms: _434  and  _436
REMARK  183  A    between atoms: _436  and  _437
REMARK  184  A    between atoms: _436  and  _439
REMARK  185  A    between atoms: _439  and  _440
REMARK  186  A    between atoms: _443  and  _445
REMARK  187  A    between atoms: _445  and  _446
REMARK  188  A    between atoms: _449  and  _451
REMARK  189  A    between atoms: _451  and  _452
REMARK  190  A    between atoms: _451  and  _454
REMARK  191  A    between atoms: _454  and  _455
REMARK  192  A    between atoms: _460  and  _462
REMARK  193  A    between atoms: _462  and  _463
REMARK  194  A    between atoms: _462  and  _465
REMARK  195  A    between atoms: _465  and  _466
REMARK  196  A    between atoms: _466  and  _467
REMARK  197  A    between atoms: _467  and  _468
REMARK  198  A    between atoms: _468  and  _469
REMARK  199  A    between atoms: _473  and  _475
REMARK  200  A    between atoms: _475  and  _476
REMARK  201  A    between atoms: _475  and  _478
REMARK  202  A    between atoms: _478  and  _479
REMARK  203  A    between atoms: _482  and  _484
REMARK  204  A    between atoms: _484  and  _485
REMARK  205  A    between atoms: _487  and  _489
REMARK  206  A    between atoms: _489  and  _490
REMARK  207  A    between atoms: _489  and  _492
REMARK  208  A    between atoms: _492  and  _493
REMARK  209  A    between atoms: _498  and  _499
REMARK  210  A    between atoms: _501  and  _503
REMARK  211  A    between atoms: _503  and  _504
REMARK  212  A    between atoms: _503  and  _506
REMARK  213  A    between atoms: _506  and  _507
REMARK  214  A    between atoms: _512  and  _513
REMARK  215  A    between atoms: _515  and  _517
REMARK  216  A    between atoms: _517  and  _518
REMARK  217  A    between atoms: _517  and  _520
REMARK  218  A    between atoms: _520  and  _521
REMARK  219  A    between atoms: _524  and  _526
REMARK  220  A    between atoms: _526  and  _527
REMARK  221  A    between atoms: _526  and  _529
REMARK  222  A    between atoms: _529  and  _530
REMARK  223  A    between atoms: _535  and  _537
REMARK  224  A    between atoms: _537  and  _538
REMARK  225  A    between atoms: _537  and  _540
REMARK  226  A    between atoms: _540  and  _541
REMARK  227  A    between atoms: _541  and  _542
REMARK  228  A    between atoms: _542  and  _543
REMARK  229  A    between atoms: _552  and  _554
REMARK  230  A    between atoms: _554  and  _555
REMARK  231  A    between atoms: _554  and  _557
REMARK  232  A    between atoms: _557  and  _558
REMARK  233  A    between atoms: _563  and  _564
REMARK  234  A    between atoms: _566  and  _568
REMARK  235  A    between atoms: _568  and  _569
REMARK  236  A    between atoms: _568  and  _571
REMARK  237  A    between atoms: _571  and  _572
REMARK                            x       y       z     vdW  Elec       q    Type
REMARK                         _______ _______ _______ _____ _____    ______ ____
ROOT
ATOM      1  O   HOH     1      -1.682  -4.413 -23.594  0.00  0.00    +0.000 OA
ENDROOT
TORSDOF 0
REMARK  Name = ../refined-set-2016/4ymg/4ymg_pocket.pdb
REMARK  237 active torsions:
REMARK  status: ('A' for Active; 'I' for Inactive)
REMARK    1  A    between atoms: _1  and  _3
REMARK    2  A    between atoms: _3  and  _4
REMARK    3  A    between atoms: _3  and  _6
REMARK    4  A    between atoms: _6  and  _7
REMARK    5  A    between atoms: _12  and  _14
REMARK    6  A    between atoms: _14  and  _15
REMARK    7  A    between atoms: _14  and  _17
REMARK    8  A    between atoms: _17  and  _18
REMARK    9  A    between atoms: _28  and  _30
REMARK   10  A    between atoms: _30  and  _31
REMARK   11  A    between atoms: _30  and  _33
REMARK   12  A    between atoms: _33  and  _34
REMARK   13  A    between atoms: _37  and  _39
REMARK   14  A    between atoms: _39  and  _40
REMARK   15  A    between atoms: _39  and  _42
REMARK   16  A    between atoms: _42  and  _43
REMARK   17  A    between atoms: _46  and  _48
REMARK   18  A    between atoms: _48  and  _49
REMARK   19  A    between atoms: _52  and  _54
REMARK   20  A    between atoms: _54  and  _55
REMARK   21  A    between atoms: _54  and  _57
REMARK   22  A    between atoms: _57  and  _58
REMARK   23  A    between atoms: _61  and  _63
REMARK   24  A    between atoms: _63  and  _64
REMARK   25  A    between atoms: _63  and  _66
REMARK   26  A    between atoms: _66  and  _67
REMARK   27  A    between atoms: _67  and  _68
REMARK   28  A    between atoms: _68  and  _69
REMARK   29  A    between atoms: _69  and  _70
REMARK   30  A    between atoms: _74  and  _76
REMARK   31  A    between atoms: _76  and  _77
REMARK   32  A    between atoms: _76  and  _79
REMARK   33  A    between atoms: _79  and  _80
REMARK   34  A    between atoms: _80  and  _81
REMARK   35  A    between atoms: _83  and  _85
REMARK   36  A    between atoms: _85  and  _86
REMARK   37  A    between atoms: _85  and  _88
REMARK   38  A    between atoms: _88  and  _89
REMARK   39  A    between atoms: _91  and  _93
REMARK   40  A    between atoms: _93  and  _94
REMARK   41  A    between atoms: _93  and  _96
REMARK   42  A    between atoms: _96  and  _97
REMARK   43  A    between atoms: _99  and  _101
REMARK   44  A    between atoms: _101  and  _102
REMARK   45  A    between atoms: _101  and  _104
REMARK   46  A    between atoms: _104  and  _105
REMARK   47  A    between atoms: _105  and  _106
REMARK   48  A    between atoms: _111  and  _113
REMARK   49  A    between atoms: _113  and  _114
REMARK   50  A    between atoms: _116  and  _118
REMARK   51  A    between atoms: _118  and  _119
REMARK   52  A    between atoms: _118  and  _121
REMARK   53  A    between atoms: _121  and  _122
REMARK   54  A    between atoms: _122  and  _123
REMARK   55  A    between atoms: _125  and  _127
REMARK   56  A    between atoms: _127  and  _128
REMARK   57  A    between atoms: _127  and  _130
REMARK   58  A    between atoms: _130  and  _131
REMARK   59  A    between atoms: _131  and  _132
REMARK   60  A    between atoms: _135  and  _137
REMARK   61  A    between atoms: _137  and  _138
REMARK   62  A    between atoms: _137  and  _140
REMARK   63  A    between atoms: _140  and  _141
REMARK   64  A    between atoms: _144  and  _146
REMARK   65  A    between atoms: _146  and  _147
REMARK   66  A    between atoms: _149  and  _151
REMARK   67  A    between atoms: _151  and  _152
REMARK   68  A    between atoms: _151  and  _154
REMARK   69  A    between atoms: _156  and  _158
REMARK   70  A    between atoms: _158  and  _159
REMARK   71  A    between atoms: _158  and  _161
REMARK   72  A    between atoms: _161  and  _162
REMARK   73  A    between atoms: _167  and  _168
REMARK   74  A    between atoms: _170  and  _172
REMARK   75  A    between atoms: _172  and  _173
REMARK   76  A    between atoms: _172  and  _175
REMARK   77  A    between atoms: _175  and  _176
REMARK   78  A    between atoms: _178  and  _180
REMARK   79  A    between atoms: _180  and  _181
REMARK   80  A    between atoms: _183  and  _185
REMARK   81  A    between atoms: _185  and  _186
REMARK   82  A    between atoms: _185  and  _188
REMARK   83  A    between atoms: _188  and  _189
REMARK   84  A    between atoms: _194  and  _195
REMARK   85  A    between atoms: _197  and  _199
REMARK   86  A    between atoms: _199  and  _200
REMARK   87  A    between atoms: _199  and  _202
REMARK   88  A    between atoms: _202  and  _203
REMARK   89  A    between atoms: _205  and  _207
REMARK   90  A    between atoms: _207  and  _208
REMARK   91  A    between atoms: _211  and  _213
REMARK   92  A    between atoms: _213  and  _214
REMARK   93  A    between atoms: _213  and  _216
REMARK   94  A    between atoms: _216  and  _217
REMARK   95  A    between atoms: _220  and  _222
REMARK   96  A    between atoms: _222  and  _223
REMARK   97  A    between atoms: _226  and  _228
REMARK   98  A    between atoms: _228  and  _229
REMARK   99  A    between atoms: _228  and  _231
REMARK  100  A    between atoms: _231  and  _232
REMARK  101  A    between atoms: _242  and  _244
REMARK  102  A    between atoms: _244  and  _245
REMARK  103  A    between atoms: _244  and  _247
REMARK  104  A    between atoms: _247  and  _248
REMARK  105  A    between atoms: _251  and  _253
REMARK  106  A    between atoms: _253  and  _254
REMARK  107  A    between atoms: _253  and  _256
REMARK  108  A    between atoms: _256  and  _257
REMARK  109  A    between atoms: _260  and  _262
REMARK  110  A    between atoms: _262  and  _263
REMARK  111  A    between atoms: _262  and  _265
REMARK  112  A    between atoms: _265  and  _266
REMARK  113  A    between atoms: _266  and  _267
REMARK  114  A    between atoms: _270  and  _272
REMARK  115  A    between atoms: _272  and  _273
REMARK  116  A    between atoms: _272  and  _275
REMARK  117  A    between atoms: _275  and  _276
REMARK  118  A    between atoms: _281  and  _282
REMARK  119  A    between atoms: _284  and  _286
REMARK  120  A    between atoms: _286  and  _287
REMARK  121  A    between atoms: _286  and  _289
REMARK  122  A    between atoms: _289  and  _290
REMARK  123  A    between atoms: _293  and  _294
REMARK  124  A    between atoms: _299  and  _301
REMARK  125  A    between atoms: _301  and  _302
REMARK  126  A    between atoms: _301  and  _304
REMARK  127  A    between atoms: _304  and  _305
REMARK  128  A    between atoms: _305  and  _306
REMARK  129  A    between atoms: _306  and  _307
REMARK  130  A    between atoms: _307  and  _308
REMARK  131  A    between atoms: _312  and  _314
REMARK  132  A    between atoms: _314  and  _315
REMARK  133  A    between atoms: _314  and  _317
REMARK  134  A    between atoms: _317  and  _318
REMARK  135  A    between atoms: _318  and  _319
REMARK  136  A    between atoms: _321  and  _323
REMARK  137  A    between atoms: _323  and  _324
REMARK  138  A    between atoms: _323  and  _326
REMARK  139  A    between atoms: _326  and  _327
REMARK  140  A    between atoms: _330  and  _332
REMARK  141  A    between atoms: _332  and  _333
REMARK  142  A    between atoms: _332  and  _335
REMARK  143  A    between atoms: _335  and  _336
REMARK  144  A    between atoms: _338  and  _340
REMARK  145  A    between atoms: _340  and  _341
REMARK  146  A    between atoms: _340  and  _343
REMARK  147  A    between atoms: _343  and  _344
REMARK  148  A    between atoms: _347  and  _349
REMARK  149  A    between atoms: _349  and  _350
REMARK  150  A    between atoms: _349  and  _352
REMARK  151  A    between atoms: _352  and  _353
REMARK  152  A    between atoms: _353  and  _354
REMARK  153  A    between atoms: _357  and  _359
REMARK  154  A    between atoms: _359  and  _360
REMARK  155  A    between atoms: _363  and  _364
REMARK  156  A    between atoms: _369  and  _371
REMARK  157  A    between atoms: _371  and  _372
REMARK  158  A    between atoms: _375  and  _377
REMARK  159  A    between atoms: _377  and  _378
REMARK  160  A    between atoms: _377  and  _380
REMARK  161  A    between atoms: _380  and  _381
REMARK  162  A    between atoms: _381  and  _382
REMARK  163  A    between atoms: _385  and  _387
REMARK  164  A    between atoms: _387  and  _388
REMARK  165  A    between atoms: _387  and  _390
REMARK  166  A    between atoms: _390  and  _391
REMARK  167  A    between atoms: _396  and  _398
REMARK  168  A    between atoms: _398  and  _399
REMARK  169  A    between atoms: _398  and  _401
REMARK  170  A    between atoms: _401  and  _402
REMARK  171  A    between atoms: _405  and  _407
REMARK  172  A    between atoms: _407  and  _408
REMARK  173  A    between atoms: _407  and  _410
REMARK  174  A    between atoms: _410  and  _411
REMARK  175  A    between atoms: _414  and  _416
REMARK  176  A    between atoms: _416  and  _417
REMARK  177  A    between atoms: _416  and  _419
REMARK  178  A    between atoms: _419  and  _420
REMARK  179  A    between atoms: _426  and  _428
REMARK  180  A    between atoms: _428  and  _429
REMARK  181  A    between atoms: _428  and  _431
REMARK  182  A    between atoms: _434  and  _436
REMARK  183  A    between atoms: _436  and  _437
REMARK  184  A    between atoms: _436  and  _439
REMARK  185  A    between atoms: _439  and  _440
REMARK  186  A    between atoms: _443  and  _445
REMARK  187  A    between atoms: _445  and  _446
REMARK  188  A    between atoms: _449  and  _451
REMARK  189  A    between atoms: _451  and  _452
REMARK  190  A    between atoms: _451  and  _454
REMARK  191  A    between atoms: _454  and  _455
REMARK  192  A    between atoms: _460  and  _462
REMARK  193  A    between atoms: _462  and  _463
REMARK  194  A    between atoms: _462  and  _465
REMARK  195  A    between atoms: _465  and  _466
REMARK  196  A    between atoms: _466  and  _467
REMARK  197  A    between atoms: _467  and  _468
REMARK  198  A    between atoms: _468  and  _469
REMARK  199  A    between atoms: _473  and  _475
REMARK  200  A    between atoms: _475  and  _476
REMARK  201  A    between atoms: _475  and  _478
REMARK  202  A    between atoms: _478  and  _479
REMARK  203  A    between atoms: _482  and  _484
REMARK  204  A    between atoms: _484  and  _485
REMARK  205  A    between atoms: _487  and  _489
REMARK  206  A    between atoms: _489  and  _490
REMARK  207  A    between atoms: _489  and  _492
REMARK  208  A    between atoms: _492  and  _493
REMARK  209  A    between atoms: _498  and  _499
REMARK  210  A    between atoms: _501  and  _503
REMARK  211  A    between atoms: _503  and  _504
REMARK  212  A    between atoms: _503  and  _506
REMARK  213  A    between atoms: _506  and  _507
REMARK  214  A    between atoms: _512  and  _513
REMARK  215  A    between atoms: _515  and  _517
REMARK  216  A    between atoms: _517  and  _518
REMARK  217  A    between atoms: _517  and  _520
REMARK  218  A    between atoms: _520  and  _521
REMARK  219  A    between atoms: _524  and  _526
REMARK  220  A    between atoms: _526  and  _527
REMARK  221  A    between atoms: _526  and  _529
REMARK  222  A    between atoms: _529  and  _530
REMARK  223  A    between atoms: _535  and  _537
REMARK  224  A    between atoms: _537  and  _538
REMARK  225  A    between atoms: _537  and  _540
REMARK  226  A    between atoms: _540  and  _541
REMARK  227  A    between atoms: _541  and  _542
REMARK  228  A    between atoms: _542  and  _543
REMARK  229  A    between atoms: _552  and  _554
REMARK  230  A    between atoms: _554  and  _555
REMARK  231  A    between atoms: _554  and  _557
REMARK  232  A    between atoms: _557  and  _558
REMARK  233  A    between atoms: _563  and  _564
REMARK  234  A    between atoms: _566  and  _568
REMARK  235  A    between atoms: _568  and  _569
REMARK  236  A    between atoms: _568  and  _571
REMARK  237  A    between atoms: _571  and  _572
REMARK                            x       y       z     vdW  Elec       q    Type
REMARK                         _______ _______ _______ _____ _____    ______ ____
ROOT
ATOM      1  O   HOH     1      -9.585   1.670 -15.453  0.00  0.00    +0.000 OA
ENDROOT
TORSDOF 0
REMARK  Name = ../refined-set-2016/4ymg/4ymg_pocket.pdb
REMARK  237 active torsions:
REMARK  status: ('A' for Active; 'I' for Inactive)
REMARK    1  A    between atoms: _1  and  _3
REMARK    2  A    between atoms: _3  and  _4
REMARK    3  A    between atoms: _3  and  _6
REMARK    4  A    between atoms: _6  and  _7
REMARK    5  A    between atoms: _12  and  _14
REMARK    6  A    between atoms: _14  and  _15
REMARK    7  A    between atoms: _14  and  _17
REMARK    8  A    between atoms: _17  and  _18
REMARK    9  A    between atoms: _28  and  _30
REMARK   10  A    between atoms: _30  and  _31
REMARK   11  A    between atoms: _30  and  _33
REMARK   12  A    between atoms: _33  and  _34
REMARK   13  A    between atoms: _37  and  _39
REMARK   14  A    between atoms: _39  and  _40
REMARK   15  A    between atoms: _39  and  _42
REMARK   16  A    between atoms: _42  and  _43
REMARK   17  A    between atoms: _46  and  _48
REMARK   18  A    between atoms: _48  and  _49
REMARK   19  A    between atoms: _52  and  _54
REMARK   20  A    between atoms: _54  and  _55
REMARK   21  A    between atoms: _54  and  _57
REMARK   22  A    between atoms: _57  and  _58
REMARK   23  A    between atoms: _61  and  _63
REMARK   24  A    between atoms: _63  and  _64
REMARK   25  A    between atoms: _63  and  _66
REMARK   26  A    between atoms: _66  and  _67
REMARK   27  A    between atoms: _67  and  _68
REMARK   28  A    between atoms: _68  and  _69
REMARK   29  A    between atoms: _69  and  _70
REMARK   30  A    between atoms: _74  and  _76
REMARK   31  A    between atoms: _76  and  _77
REMARK   32  A    between atoms: _76  and  _79
REMARK   33  A    between atoms: _79  and  _80
REMARK   34  A    between atoms: _80  and  _81
REMARK   35  A    between atoms: _83  and  _85
REMARK   36  A    between atoms: _85  and  _86
REMARK   37  A    between atoms: _85  and  _88
REMARK   38  A    between atoms: _88  and  _89
REMARK   39  A    between atoms: _91  and  _93
REMARK   40  A    between atoms: _93  and  _94
REMARK   41  A    between atoms: _93  and  _96
REMARK   42  A    between atoms: _96  and  _97
REMARK   43  A    between atoms: _99  and  _101
REMARK   44  A    between atoms: _101  and  _102
REMARK   45  A    between atoms: _101  and  _104
REMARK   46  A    between atoms: _104  and  _105
REMARK   47  A    between atoms: _105  and  _106
REMARK   48  A    between atoms: _111  and  _113
REMARK   49  A    between atoms: _113  and  _114
REMARK   50  A    between atoms: _116  and  _118
REMARK   51  A    between atoms: _118  and  _119
REMARK   52  A    between atoms: _118  and  _121
REMARK   53  A    between atoms: _121  and  _122
REMARK   54  A    between atoms: _122  and  _123
REMARK   55  A    between atoms: _125  and  _127
REMARK   56  A    between atoms: _127  and  _128
REMARK   57  A    between atoms: _127  and  _130
REMARK   58  A    between atoms: _130  and  _131
REMARK   59  A    between atoms: _131  and  _132
REMARK   60  A    between atoms: _135  and  _137
REMARK   61  A    between atoms: _137  and  _138
REMARK   62  A    between atoms: _137  and  _140
REMARK   63  A    between atoms: _140  and  _141
REMARK   64  A    between atoms: _144  and  _146
REMARK   65  A    between atoms: _146  and  _147
REMARK   66  A    between atoms: _149  and  _151
REMARK   67  A    between atoms: _151  and  _152
REMARK   68  A    between atoms: _151  and  _154
REMARK   69  A    between atoms: _156  and  _158
REMARK   70  A    between atoms: _158  and  _159
REMARK   71  A    between atoms: _158  and  _161
REMARK   72  A    between atoms: _161  and  _162
REMARK   73  A    between atoms: _167  and  _168
REMARK   74  A    between atoms: _170  and  _172
REMARK   75  A    between atoms: _172  and  _173
REMARK   76  A    between atoms: _172  and  _175
REMARK   77  A    between atoms: _175  and  _176
REMARK   78  A    between atoms: _178  and  _180
REMARK   79  A    between atoms: _180  and  _181
REMARK   80  A    between atoms: _183  and  _185
REMARK   81  A    between atoms: _185  and  _186
REMARK   82  A    between atoms: _185  and  _188
REMARK   83  A    between atoms: _188  and  _189
REMARK   84  A    between atoms: _194  and  _195
REMARK   85  A    between atoms: _197  and  _199
REMARK   86  A    between atoms: _199  and  _200
REMARK   87  A    between atoms: _199  and  _202
REMARK   88  A    between atoms: _202  and  _203
REMARK   89  A    between atoms: _205  and  _207
REMARK   90  A    between atoms: _207  and  _208
REMARK   91  A    between atoms: _211  and  _213
REMARK   92  A    between atoms: _213  and  _214
REMARK   93  A    between atoms: _213  and  _216
REMARK   94  A    between atoms: _216  and  _217
REMARK   95  A    between atoms: _220  and  _222
REMARK   96  A    between atoms: _222  and  _223
REMARK   97  A    between atoms: _226  and  _228
REMARK   98  A    between atoms: _228  and  _229
REMARK   99  A    between atoms: _228  and  _231
REMARK  100  A    between atoms: _231  and  _232
REMARK  101  A    between atoms: _242  and  _244
REMARK  102  A    between atoms: _244  and  _245
REMARK  103  A    between atoms: _244  and  _247
REMARK  104  A    between atoms: _247  and  _248
REMARK  105  A    between atoms: _251  and  _253
REMARK  106  A    between atoms: _253  and  _254
REMARK  107  A    between atoms: _253  and  _256
REMARK  108  A    between atoms: _256  and  _257
REMARK  109  A    between atoms: _260  and  _262
REMARK  110  A    between atoms: _262  and  _263
REMARK  111  A    between atoms: _262  and  _265
REMARK  112  A    between atoms: _265  and  _266
REMARK  113  A    between atoms: _266  and  _267
REMARK  114  A    between atoms: _270  and  _272
REMARK  115  A    between atoms: _272  and  _273
REMARK  116  A    between atoms: _272  and  _275
REMARK  117  A    between atoms: _275  and  _276
REMARK  118  A    between atoms: _281  and  _282
REMARK  119  A    between atoms: _284  and  _286
REMARK  120  A    between atoms: _286  and  _287
REMARK  121  A    between atoms: _286  and  _289
REMARK  122  A    between atoms: _289  and  _290
REMARK  123  A    between atoms: _293  and  _294
REMARK  124  A    between atoms: _299  and  _301
REMARK  125  A    between atoms: _301  and  _302
REMARK  126  A    between atoms: _301  and  _304
REMARK  127  A    between atoms: _304  and  _305
REMARK  128  A    between atoms: _305  and  _306
REMARK  129  A    between atoms: _306  and  _307
REMARK  130  A    between atoms: _307  and  _308
REMARK  131  A    between atoms: _312  and  _314
REMARK  132  A    between atoms: _314  and  _315
REMARK  133  A    between atoms: _314  and  _317
REMARK  134  A    between atoms: _317  and  _318
REMARK  135  A    between atoms: _318  and  _319
REMARK  136  A    between atoms: _321  and  _323
REMARK  137  A    between atoms: _323  and  _324
REMARK  138  A    between atoms: _323  and  _326
REMARK  139  A    between atoms: _326  and  _327
REMARK  140  A    between atoms: _330  and  _332
REMARK  141  A    between atoms: _332  and  _333
REMARK  142  A    between atoms: _332  and  _335
REMARK  143  A    between atoms: _335  and  _336
REMARK  144  A    between atoms: _338  and  _340
REMARK  145  A    between atoms: _340  and  _341
REMARK  146  A    between atoms: _340  and  _343
REMARK  147  A    between atoms: _343  and  _344
REMARK  148  A    between atoms: _347  and  _349
REMARK  149  A    between atoms: _349  and  _350
REMARK  150  A    between atoms: _349  and  _352
REMARK  151  A    between atoms: _352  and  _353
REMARK  152  A    between atoms: _353  and  _354
REMARK  153  A    between atoms: _357  and  _359
REMARK  154  A    between atoms: _359  and  _360
REMARK  155  A    between atoms: _363  and  _364
REMARK  156  A    between atoms: _369  and  _371
REMARK  157  A    between atoms: _371  and  _372
REMARK  158  A    between atoms: _375  and  _377
REMARK  159  A    between atoms: _377  and  _378
REMARK  160  A    between atoms: _377  and  _380
REMARK  161  A    between atoms: _380  and  _381
REMARK  162  A    between atoms: _381  and  _382
REMARK  163  A    between atoms: _385  and  _387
REMARK  164  A    between atoms: _387  and  _388
REMARK  165  A    between atoms: _387  and  _390
REMARK  166  A    between atoms: _390  and  _391
REMARK  167  A    between atoms: _396  and  _398
REMARK  168  A    between atoms: _398  and  _399
REMARK  169  A    between atoms: _398  and  _401
REMARK  170  A    between atoms: _401  and  _402
REMARK  171  A    between atoms: _405  and  _407
REMARK  172  A    between atoms: _407  and  _408
REMARK  173  A    between atoms: _407  and  _410
REMARK  174  A    between atoms: _410  and  _411
REMARK  175  A    between atoms: _414  and  _416
REMARK  176  A    between atoms: _416  and  _417
REMARK  177  A    between atoms: _416  and  _419
REMARK  178  A    between atoms: _419  and  _420
REMARK  179  A    between atoms: _426  and  _428
REMARK  180  A    between atoms: _428  and  _429
REMARK  181  A    between atoms: _428  and  _431
REMARK  182  A    between atoms: _434  and  _436
REMARK  183  A    between atoms: _436  and  _437
REMARK  184  A    between atoms: _436  and  _439
REMARK  185  A    between atoms: _439  and  _440
REMARK  186  A    between atoms: _443  and  _445
REMARK  187  A    between atoms: _445  and  _446
REMARK  188  A    between atoms: _449  and  _451
REMARK  189  A    between atoms: _451  and  _452
REMARK  190  A    between atoms: _451  and  _454
REMARK  191  A    between atoms: _454  and  _455
REMARK  192  A    between atoms: _460  and  _462
REMARK  193  A    between atoms: _462  and  _463
REMARK  194  A    between atoms: _462  and  _465
REMARK  195  A    between atoms: _465  and  _466
REMARK  196  A    between atoms: _466  and  _467
REMARK  197  A    between atoms: _467  and  _468
REMARK  198  A    between atoms: _468  and  _469
REMARK  199  A    between atoms: _473  and  _475
REMARK  200  A    between atoms: _475  and  _476
REMARK  201  A    between atoms: _475  and  _478
REMARK  202  A    between atoms: _478  and  _479
REMARK  203  A    between atoms: _482  and  _484
REMARK  204  A    between atoms: _484  and  _485
REMARK  205  A    between atoms: _487  and  _489
REMARK  206  A    between atoms: _489  and  _490
REMARK  207  A    between atoms: _489  and  _492
REMARK  208  A    between atoms: _492  and  _493
REMARK  209  A    between atoms: _498  and  _499
REMARK  210  A    between atoms: _501  and  _503
REMARK  211  A    between atoms: _503  and  _504
REMARK  212  A    between atoms: _503  and  _506
REMARK  213  A    between atoms: _506  and  _507
REMARK  214  A    between atoms: _512  and  _513
REMARK  215  A    between atoms: _515  and  _517
REMARK  216  A    between atoms: _517  and  _518
REMARK  217  A    between atoms: _517  and  _520
REMARK  218  A    between atoms: _520  and  _521
REMARK  219  A    between atoms: _524  and  _526
REMARK  220  A    between atoms: _526  and  _527
REMARK  221  A    between atoms: _526  and  _529
REMARK  222  A    between atoms: _529  and  _530
REMARK  223  A    between atoms: _535  and  _537
REMARK  224  A    between atoms: _537  and  _538
REMARK  225  A    between atoms: _537  and  _540
REMARK  226  A    between atoms: _540  and  _541
REMARK  227  A    between atoms: _541  and  _542
REMARK  228  A    between atoms: _542  and  _543
REMARK  229  A    between atoms: _552  and  _554
REMARK  230  A    between atoms: _554  and  _555
REMARK  231  A    between atoms: _554  and  _557
REMARK  232  A    between atoms: _557  and  _558
REMARK  233  A    between atoms: _563  and  _564
REMARK  234  A    between atoms: _566  and  _568
REMARK  235  A    between atoms: _568  and  _569
REMARK  236  A    between atoms: _568  and  _571
REMARK  237  A    between atoms: _571  and  _572
REMARK                            x       y       z     vdW  Elec       q    Type
REMARK                         _______ _______ _______ _____ _____    ______ ____
ROOT
ATOM      1  O   HOH     1      -6.083  -5.991 -19.997  0.00  0.00    +0.000 OA
ENDROOT
TORSDOF 0
REMARK  Name = ../refined-set-2016/4ymg/4ymg_pocket.pdb
REMARK  237 active torsions:
REMARK  status: ('A' for Active; 'I' for Inactive)
REMARK    1  A    between atoms: _1  and  _3
REMARK    2  A    between atoms: _3  and  _4
REMARK    3  A    between atoms: _3  and  _6
REMARK    4  A    between atoms: _6  and  _7
REMARK    5  A    between atoms: _12  and  _14
REMARK    6  A    between atoms: _14  and  _15
REMARK    7  A    between atoms: _14  and  _17
REMARK    8  A    between atoms: _17  and  _18
REMARK    9  A    between atoms: _28  and  _30
REMARK   10  A    between atoms: _30  and  _31
REMARK   11  A    between atoms: _30  and  _33
REMARK   12  A    between atoms: _33  and  _34
REMARK   13  A    between atoms: _37  and  _39
REMARK   14  A    between atoms: _39  and  _40
REMARK   15  A    between atoms: _39  and  _42
REMARK   16  A    between atoms: _42  and  _43
REMARK   17  A    between atoms: _46  and  _48
REMARK   18  A    between atoms: _48  and  _49
REMARK   19  A    between atoms: _52  and  _54
REMARK   20  A    between atoms: _54  and  _55
REMARK   21  A    between atoms: _54  and  _57
REMARK   22  A    between atoms: _57  and  _58
REMARK   23  A    between atoms: _61  and  _63
REMARK   24  A    between atoms: _63  and  _64
REMARK   25  A    between atoms: _63  and  _66
REMARK   26  A    between atoms: _66  and  _67
REMARK   27  A    between atoms: _67  and  _68
REMARK   28  A    between atoms: _68  and  _69
REMARK   29  A    between atoms: _69  and  _70
REMARK   30  A    between atoms: _74  and  _76
REMARK   31  A    between atoms: _76  and  _77
REMARK   32  A    between atoms: _76  and  _79
REMARK   33  A    between atoms: _79  and  _80
REMARK   34  A    between atoms: _80  and  _81
REMARK   35  A    between atoms: _83  and  _85
REMARK   36  A    between atoms: _85  and  _86
REMARK   37  A    between atoms: _85  and  _88
REMARK   38  A    between atoms: _88  and  _89
REMARK   39  A    between atoms: _91  and  _93
REMARK   40  A    between atoms: _93  and  _94
REMARK   41  A    between atoms: _93  and  _96
REMARK   42  A    between atoms: _96  and  _97
REMARK   43  A    between atoms: _99  and  _101
REMARK   44  A    between atoms: _101  and  _102
REMARK   45  A    between atoms: _101  and  _104
REMARK   46  A    between atoms: _104  and  _105
REMARK   47  A    between atoms: _105  and  _106
REMARK   48  A    between atoms: _111  and  _113
REMARK   49  A    between atoms: _113  and  _114
REMARK   50  A    between atoms: _116  and  _118
REMARK   51  A    between atoms: _118  and  _119
REMARK   52  A    between atoms: _118  and  _121
REMARK   53  A    between atoms: _121  and  _122
REMARK   54  A    between atoms: _122  and  _123
REMARK   55  A    between atoms: _125  and  _127
REMARK   56  A    between atoms: _127  and  _128
REMARK   57  A    between atoms: _127  and  _130
REMARK   58  A    between atoms: _130  and  _131
REMARK   59  A    between atoms: _131  and  _132
REMARK   60  A    between atoms: _135  and  _137
REMARK   61  A    between atoms: _137  and  _138
REMARK   62  A    between atoms: _137  and  _140
REMARK   63  A    between atoms: _140  and  _141
REMARK   64  A    between atoms: _144  and  _146
REMARK   65  A    between atoms: _146  and  _147
REMARK   66  A    between atoms: _149  and  _151
REMARK   67  A    between atoms: _151  and  _152
REMARK   68  A    between atoms: _151  and  _154
REMARK   69  A    between atoms: _156  and  _158
REMARK   70  A    between atoms: _158  and  _159
REMARK   71  A    between atoms: _158  and  _161
REMARK   72  A    between atoms: _161  and  _162
REMARK   73  A    between atoms: _167  and  _168
REMARK   74  A    between atoms: _170  and  _172
REMARK   75  A    between atoms: _172  and  _173
REMARK   76  A    between atoms: _172  and  _175
REMARK   77  A    between atoms: _175  and  _176
REMARK   78  A    between atoms: _178  and  _180
REMARK   79  A    between atoms: _180  and  _181
REMARK   80  A    between atoms: _183  and  _185
REMARK   81  A    between atoms: _185  and  _186
REMARK   82  A    between atoms: _185  and  _188
REMARK   83  A    between atoms: _188  and  _189
REMARK   84  A    between atoms: _194  and  _195
REMARK   85  A    between atoms: _197  and  _199
REMARK   86  A    between atoms: _199  and  _200
REMARK   87  A    between atoms: _199  and  _202
REMARK   88  A    between atoms: _202  and  _203
REMARK   89  A    between atoms: _205  and  _207
REMARK   90  A    between atoms: _207  and  _208
REMARK   91  A    between atoms: _211  and  _213
REMARK   92  A    between atoms: _213  and  _214
REMARK   93  A    between atoms: _213  and  _216
REMARK   94  A    between atoms: _216  and  _217
REMARK   95  A    between atoms: _220  and  _222
REMARK   96  A    between atoms: _222  and  _223
REMARK   97  A    between atoms: _226  and  _228
REMARK   98  A    between atoms: _228  and  _229
REMARK   99  A    between atoms: _228  and  _231
REMARK  100  A    between atoms: _231  and  _232
REMARK  101  A    between atoms: _242  and  _244
REMARK  102  A    between atoms: _244  and  _245
REMARK  103  A    between atoms: _244  and  _247
REMARK  104  A    between atoms: _247  and  _248
REMARK  105  A    between atoms: _251  and  _253
REMARK  106  A    between atoms: _253  and  _254
REMARK  107  A    between atoms: _253  and  _256
REMARK  108  A    between atoms: _256  and  _257
REMARK  109  A    between atoms: _260  and  _262
REMARK  110  A    between atoms: _262  and  _263
REMARK  111  A    between atoms: _262  and  _265
REMARK  112  A    between atoms: _265  and  _266
REMARK  113  A    between atoms: _266  and  _267
REMARK  114  A    between atoms: _270  and  _272
REMARK  115  A    between atoms: _272  and  _273
REMARK  116  A    between atoms: _272  and  _275
REMARK  117  A    between atoms: _275  and  _276
REMARK  118  A    between atoms: _281  and  _282
REMARK  119  A    between atoms: _284  and  _286
REMARK  120  A    between atoms: _286  and  _287
REMARK  121  A    between atoms: _286  and  _289
REMARK  122  A    between atoms: _289  and  _290
REMARK  123  A    between atoms: _293  and  _294
REMARK  124  A    between atoms: _299  and  _301
REMARK  125  A    between atoms: _301  and  _302
REMARK  126  A    between atoms: _301  and  _304
REMARK  127  A    between atoms: _304  and  _305
REMARK  128  A    between atoms: _305  and  _306
REMARK  129  A    between atoms: _306  and  _307
REMARK  130  A    between atoms: _307  and  _308
REMARK  131  A    between atoms: _312  and  _314
REMARK  132  A    between atoms: _314  and  _315
REMARK  133  A    between atoms: _314  and  _317
REMARK  134  A    between atoms: _317  and  _318
REMARK  135  A    between atoms: _318  and  _319
REMARK  136  A    between atoms: _321  and  _323
REMARK  137  A    between atoms: _323  and  _324
REMARK  138  A    between atoms: _323  and  _326
REMARK  139  A    between atoms: _326  and  _327
REMARK  140  A    between atoms: _330  and  _332
REMARK  141  A    between atoms: _332  and  _333
REMARK  142  A    between atoms: _332  and  _335
REMARK  143  A    between atoms: _335  and  _336
REMARK  144  A    between atoms: _338  and  _340
REMARK  145  A    between atoms: _340  and  _341
REMARK  146  A    between atoms: _340  and  _343
REMARK  147  A    between atoms: _343  and  _344
REMARK  148  A    between atoms: _347  and  _349
REMARK  149  A    between atoms: _349  and  _350
REMARK  150  A    between atoms: _349  and  _352
REMARK  151  A    between atoms: _352  and  _353
REMARK  152  A    between atoms: _353  and  _354
REMARK  153  A    between atoms: _357  and  _359
REMARK  154  A    between atoms: _359  and  _360
REMARK  155  A    between atoms: _363  and  _364
REMARK  156  A    between atoms: _369  and  _371
REMARK  157  A    between atoms: _371  and  _372
REMARK  158  A    between atoms: _375  and  _377
REMARK  159  A    between atoms: _377  and  _378
REMARK  160  A    between atoms: _377  and  _380
REMARK  161  A    between atoms: _380  and  _381
REMARK  162  A    between atoms: _381  and  _382
REMARK  163  A    between atoms: _385  and  _387
REMARK  164  A    between atoms: _387  and  _388
REMARK  165  A    between atoms: _387  and  _390
REMARK  166  A    between atoms: _390  and  _391
REMARK  167  A    between atoms: _396  and  _398
REMARK  168  A    between atoms: _398  and  _399
REMARK  169  A    between atoms: _398  and  _401
REMARK  170  A    between atoms: _401  and  _402
REMARK  171  A    between atoms: _405  and  _407
REMARK  172  A    between atoms: _407  and  _408
REMARK  173  A    between atoms: _407  and  _410
REMARK  174  A    between atoms: _410  and  _411
REMARK  175  A    between atoms: _414  and  _416
REMARK  176  A    between atoms: _416  and  _417
REMARK  177  A    between atoms: _416  and  _419
REMARK  178  A    between atoms: _419  and  _420
REMARK  179  A    between atoms: _426  and  _428
REMARK  180  A    between atoms: _428  and  _429
REMARK  181  A    between atoms: _428  and  _431
REMARK  182  A    between atoms: _434  and  _436
REMARK  183  A    between atoms: _436  and  _437
REMARK  184  A    between atoms: _436  and  _439
REMARK  185  A    between atoms: _439  and  _440
REMARK  186  A    between atoms: _443  and  _445
REMARK  187  A    between atoms: _445  and  _446
REMARK  188  A    between atoms: _449  and  _451
REMARK  189  A    between atoms: _451  and  _452
REMARK  190  A    between atoms: _451  and  _454
REMARK  191  A    between atoms: _454  and  _455
REMARK  192  A    between atoms: _460  and  _462
REMARK  193  A    between atoms: _462  and  _463
REMARK  194  A    between atoms: _462  and  _465
REMARK  195  A    between atoms: _465  and  _466
REMARK  196  A    between atoms: _466  and  _467
REMARK  197  A    between atoms: _467  and  _468
REMARK  198  A    between atoms: _468  and  _469
REMARK  199  A    between atoms: _473  and  _475
REMARK  200  A    between atoms: _475  and  _476
REMARK  201  A    between atoms: _475  and  _478
REMARK  202  A    between atoms: _478  and  _479
REMARK  203  A    between atoms: _482  and  _484
REMARK  204  A    between atoms: _484  and  _485
REMARK  205  A    between atoms: _487  and  _489
REMARK  206  A    between atoms: _489  and  _490
REMARK  207  A    between atoms: _489  and  _492
REMARK  208  A    between atoms: _492  and  _493
REMARK  209  A    between atoms: _498  and  _499
REMARK  210  A    between atoms: _501  and  _503
REMARK  211  A    between atoms: _503  and  _504
REMARK  212  A    between atoms: _503  and  _506
REMARK  213  A    between atoms: _506  and  _507
REMARK  214  A    between atoms: _512  and  _513
REMARK  215  A    between atoms: _515  and  _517
REMARK  216  A    between atoms: _517  and  _518
REMARK  217  A    between atoms: _517  and  _520
REMARK  218  A    between atoms: _520  and  _521
REMARK  219  A    between atoms: _524  and  _526
REMARK  220  A    between atoms: _526  and  _527
REMARK  221  A    between atoms: _526  and  _529
REMARK  222  A    between atoms: _529  and  _530
REMARK  223  A    between atoms: _535  and  _537
REMARK  224  A    between atoms: _537  and  _538
REMARK  225  A    between atoms: _537  and  _540
REMARK  226  A    between atoms: _540  and  _541
REMARK  227  A    between atoms: _541  and  _542
REMARK  228  A    between atoms: _542  and  _543
REMARK  229  A    between atoms: _552  and  _554
REMARK  230  A    between atoms: _554  and  _555
REMARK  231  A    between atoms: _554  and  _557
REMARK  232  A    between atoms: _557  and  _558
REMARK  233  A    between atoms: _563  and  _564
REMARK  234  A    between atoms: _566  and  _568
REMARK  235  A    between atoms: _568  and  _569
REMARK  236  A    between atoms: _568  and  _571
REMARK  237  A    between atoms: _571  and  _572
REMARK                            x       y       z     vdW  Elec       q    Type
REMARK                         _______ _______ _______ _____ _____    ______ ____
ROOT
ATOM      1  O   HOH     1      -3.022  10.873 -19.839  0.00  0.00    +0.000 OA
ENDROOT
TORSDOF 0
REMARK  Name = ../refined-set-2016/4ymg/4ymg_pocket.pdb
REMARK  237 active torsions:
REMARK  status: ('A' for Active; 'I' for Inactive)
REMARK    1  A    between atoms: _1  and  _3
REMARK    2  A    between atoms: _3  and  _4
REMARK    3  A    between atoms: _3  and  _6
REMARK    4  A    between atoms: _6  and  _7
REMARK    5  A    between atoms: _12  and  _14
REMARK    6  A    between atoms: _14  and  _15
REMARK    7  A    between atoms: _14  and  _17
REMARK    8  A    between atoms: _17  and  _18
REMARK    9  A    between atoms: _28  and  _30
REMARK   10  A    between atoms: _30  and  _31
REMARK   11  A    between atoms: _30  and  _33
REMARK   12  A    between atoms: _33  and  _34
REMARK   13  A    between atoms: _37  and  _39
REMARK   14  A    between atoms: _39  and  _40
REMARK   15  A    between atoms: _39  and  _42
REMARK   16  A    between atoms: _42  and  _43
REMARK   17  A    between atoms: _46  and  _48
REMARK   18  A    between atoms: _48  and  _49
REMARK   19  A    between atoms: _52  and  _54
REMARK   20  A    between atoms: _54  and  _55
REMARK   21  A    between atoms: _54  and  _57
REMARK   22  A    between atoms: _57  and  _58
REMARK   23  A    between atoms: _61  and  _63
REMARK   24  A    between atoms: _63  and  _64
REMARK   25  A    between atoms: _63  and  _66
REMARK   26  A    between atoms: _66  and  _67
REMARK   27  A    between atoms: _67  and  _68
REMARK   28  A    between atoms: _68  and  _69
REMARK   29  A    between atoms: _69  and  _70
REMARK   30  A    between atoms: _74  and  _76
REMARK   31  A    between atoms: _76  and  _77
REMARK   32  A    between atoms: _76  and  _79
REMARK   33  A    between atoms: _79  and  _80
REMARK   34  A    between atoms: _80  and  _81
REMARK   35  A    between atoms: _83  and  _85
REMARK   36  A    between atoms: _85  and  _86
REMARK   37  A    between atoms: _85  and  _88
REMARK   38  A    between atoms: _88  and  _89
REMARK   39  A    between atoms: _91  and  _93
REMARK   40  A    between atoms: _93  and  _94
REMARK   41  A    between atoms: _93  and  _96
REMARK   42  A    between atoms: _96  and  _97
REMARK   43  A    between atoms: _99  and  _101
REMARK   44  A    between atoms: _101  and  _102
REMARK   45  A    between atoms: _101  and  _104
REMARK   46  A    between atoms: _104  and  _105
REMARK   47  A    between atoms: _105  and  _106
REMARK   48  A    between atoms: _111  and  _113
REMARK   49  A    between atoms: _113  and  _114
REMARK   50  A    between atoms: _116  and  _118
REMARK   51  A    between atoms: _118  and  _119
REMARK   52  A    between atoms: _118  and  _121
REMARK   53  A    between atoms: _121  and  _122
REMARK   54  A    between atoms: _122  and  _123
REMARK   55  A    between atoms: _125  and  _127
REMARK   56  A    between atoms: _127  and  _128
REMARK   57  A    between atoms: _127  and  _130
REMARK   58  A    between atoms: _130  and  _131
REMARK   59  A    between atoms: _131  and  _132
REMARK   60  A    between atoms: _135  and  _137
REMARK   61  A    between atoms: _137  and  _138
REMARK   62  A    between atoms: _137  and  _140
REMARK   63  A    between atoms: _140  and  _141
REMARK   64  A    between atoms: _144  and  _146
REMARK   65  A    between atoms: _146  and  _147
REMARK   66  A    between atoms: _149  and  _151
REMARK   67  A    between atoms: _151  and  _152
REMARK   68  A    between atoms: _151  and  _154
REMARK   69  A    between atoms: _156  and  _158
REMARK   70  A    between atoms: _158  and  _159
REMARK   71  A    between atoms: _158  and  _161
REMARK   72  A    between atoms: _161  and  _162
REMARK   73  A    between atoms: _167  and  _168
REMARK   74  A    between atoms: _170  and  _172
REMARK   75  A    between atoms: _172  and  _173
REMARK   76  A    between atoms: _172  and  _175
REMARK   77  A    between atoms: _175  and  _176
REMARK   78  A    between atoms: _178  and  _180
REMARK   79  A    between atoms: _180  and  _181
REMARK   80  A    between atoms: _183  and  _185
REMARK   81  A    between atoms: _185  and  _186
REMARK   82  A    between atoms: _185  and  _188
REMARK   83  A    between atoms: _188  and  _189
REMARK   84  A    between atoms: _194  and  _195
REMARK   85  A    between atoms: _197  and  _199
REMARK   86  A    between atoms: _199  and  _200
REMARK   87  A    between atoms: _199  and  _202
REMARK   88  A    between atoms: _202  and  _203
REMARK   89  A    between atoms: _205  and  _207
REMARK   90  A    between atoms: _207  and  _208
REMARK   91  A    between atoms: _211  and  _213
REMARK   92  A    between atoms: _213  and  _214
REMARK   93  A    between atoms: _213  and  _216
REMARK   94  A    between atoms: _216  and  _217
REMARK   95  A    between atoms: _220  and  _222
REMARK   96  A    between atoms: _222  and  _223
REMARK   97  A    between atoms: _226  and  _228
REMARK   98  A    between atoms: _228  and  _229
REMARK   99  A    between atoms: _228  and  _231
REMARK  100  A    between atoms: _231  and  _232
REMARK  101  A    between atoms: _242  and  _244
REMARK  102  A    between atoms: _244  and  _245
REMARK  103  A    between atoms: _244  and  _247
REMARK  104  A    between atoms: _247  and  _248
REMARK  105  A    between atoms: _251  and  _253
REMARK  106  A    between atoms: _253  and  _254
REMARK  107  A    between atoms: _253  and  _256
REMARK  108  A    between atoms: _256  and  _257
REMARK  109  A    between atoms: _260  and  _262
REMARK  110  A    between atoms: _262  and  _263
REMARK  111  A    between atoms: _262  and  _265
REMARK  112  A    between atoms: _265  and  _266
REMARK  113  A    between atoms: _266  and  _267
REMARK  114  A    between atoms: _270  and  _272
REMARK  115  A    between atoms: _272  and  _273
REMARK  116  A    between atoms: _272  and  _275
REMARK  117  A    between atoms: _275  and  _276
REMARK  118  A    between atoms: _281  and  _282
REMARK  119  A    between atoms: _284  and  _286
REMARK  120  A    between atoms: _286  and  _287
REMARK  121  A    between atoms: _286  and  _289
REMARK  122  A    between atoms: _289  and  _290
REMARK  123  A    between atoms: _293  and  _294
REMARK  124  A    between atoms: _299  and  _301
REMARK  125  A    between atoms: _301  and  _302
REMARK  126  A    between atoms: _301  and  _304
REMARK  127  A    between atoms: _304  and  _305
REMARK  128  A    between atoms: _305  and  _306
REMARK  129  A    between atoms: _306  and  _307
REMARK  130  A    between atoms: _307  and  _308
REMARK  131  A    between atoms: _312  and  _314
REMARK  132  A    between atoms: _314  and  _315
REMARK  133  A    between atoms: _314  and  _317
REMARK  134  A    between atoms: _317  and  _318
REMARK  135  A    between atoms: _318  and  _319
REMARK  136  A    between atoms: _321  and  _323
REMARK  137  A    between atoms: _323  and  _324
REMARK  138  A    between atoms: _323  and  _326
REMARK  139  A    between atoms: _326  and  _327
REMARK  140  A    between atoms: _330  and  _332
REMARK  141  A    between atoms: _332  and  _333
REMARK  142  A    between atoms: _332  and  _335
REMARK  143  A    between atoms: _335  and  _336
REMARK  144  A    between atoms: _338  and  _340
REMARK  145  A    between atoms: _340  and  _341
REMARK  146  A    between atoms: _340  and  _343
REMARK  147  A    between atoms: _343  and  _344
REMARK  148  A    between atoms: _347  and  _349
REMARK  149  A    between atoms: _349  and  _350
REMARK  150  A    between atoms: _349  and  _352
REMARK  151  A    between atoms: _352  and  _353
REMARK  152  A    between atoms: _353  and  _354
REMARK  153  A    between atoms: _357  and  _359
REMARK  154  A    between atoms: _359  and  _360
REMARK  155  A    between atoms: _363  and  _364
REMARK  156  A    between atoms: _369  and  _371
REMARK  157  A    between atoms: _371  and  _372
REMARK  158  A    between atoms: _375  and  _377
REMARK  159  A    between atoms: _377  and  _378
REMARK  160  A    between atoms: _377  and  _380
REMARK  161  A    between atoms: _380  and  _381
REMARK  162  A    between atoms: _381  and  _382
REMARK  163  A    between atoms: _385  and  _387
REMARK  164  A    between atoms: _387  and  _388
REMARK  165  A    between atoms: _387  and  _390
REMARK  166  A    between atoms: _390  and  _391
REMARK  167  A    between atoms: _396  and  _398
REMARK  168  A    between atoms: _398  and  _399
REMARK  169  A    between atoms: _398  and  _401
REMARK  170  A    between atoms: _401  and  _402
REMARK  171  A    between atoms: _405  and  _407
REMARK  172  A    between atoms: _407  and  _408
REMARK  173  A    between atoms: _407  and  _410
REMARK  174  A    between atoms: _410  and  _411
REMARK  175  A    between atoms: _414  and  _416
REMARK  176  A    between atoms: _416  and  _417
REMARK  177  A    between atoms: _416  and  _419
REMARK  178  A    between atoms: _419  and  _420
REMARK  179  A    between atoms: _426  and  _428
REMARK  180  A    between atoms: _428  and  _429
REMARK  181  A    between atoms: _428  and  _431
REMARK  182  A    between atoms: _434  and  _436
REMARK  183  A    between atoms: _436  and  _437
REMARK  184  A    between atoms: _436  and  _439
REMARK  185  A    between atoms: _439  and  _440
REMARK  186  A    between atoms: _443  and  _445
REMARK  187  A    between atoms: _445  and  _446
REMARK  188  A    between atoms: _449  and  _451
REMARK  189  A    between atoms: _451  and  _452
REMARK  190  A    between atoms: _451  and  _454
REMARK  191  A    between atoms: _454  and  _455
REMARK  192  A    between atoms: _460  and  _462
REMARK  193  A    between atoms: _462  and  _463
REMARK  194  A    between atoms: _462  and  _465
REMARK  195  A    between atoms: _465  and  _466
REMARK  196  A    between atoms: _466  and  _467
REMARK  197  A    between atoms: _467  and  _468
REMARK  198  A    between atoms: _468  and  _469
REMARK  199  A    between atoms: _473  and  _475
REMARK  200  A    between atoms: _475  and  _476
REMARK  201  A    between atoms: _475  and  _478
REMARK  202  A    between atoms: _478  and  _479
REMARK  203  A    between atoms: _482  and  _484
REMARK  204  A    between atoms: _484  and  _485
REMARK  205  A    between atoms: _487  and  _489
REMARK  206  A    between atoms: _489  and  _490
REMARK  207  A    between atoms: _489  and  _492
REMARK  208  A    between atoms: _492  and  _493
REMARK  209  A    between atoms: _498  and  _499
REMARK  210  A    between atoms: _501  and  _503
REMARK  211  A    between atoms: _503  and  _504
REMARK  212  A    between atoms: _503  and  _506
REMARK  213  A    between atoms: _506  and  _507
REMARK  214  A    between atoms: _512  and  _513
REMARK  215  A    between atoms: _515  and  _517
REMARK  216  A    between atoms: _517  and  _518
REMARK  217  A    between atoms: _517  and  _520
REMARK  218  A    between atoms: _520  and  _521
REMARK  219  A    between atoms: _524  and  _526
REMARK  220  A    between atoms: _526  and  _527
REMARK  221  A    between atoms: _526  and  _529
REMARK  222  A    between atoms: _529  and  _530
REMARK  223  A    between atoms: _535  and  _537
REMARK  224  A    between atoms: _537  and  _538
REMARK  225  A    between atoms: _537  and  _540
REMARK  226  A    between atoms: _540  and  _541
REMARK  227  A    between atoms: _541  and  _542
REMARK  228  A    between atoms: _542  and  _543
REMARK  229  A    between atoms: _552  and  _554
REMARK  230  A    between atoms: _554  and  _555
REMARK  231  A    between atoms: _554  and  _557
REMARK  232  A    between atoms: _557  and  _558
REMARK  233  A    between atoms: _563  and  _564
REMARK  234  A    between atoms: _566  and  _568
REMARK  235  A    between atoms: _568  and  _569
REMARK  236  A    between atoms: _568  and  _571
REMARK  237  A    between atoms: _571  and  _572
REMARK                            x       y       z     vdW  Elec       q    Type
REMARK                         _______ _______ _______ _____ _____    ______ ____
ROOT
ATOM      1  O   HOH     1      -7.247  10.210 -20.350  0.00  0.00    +0.000 OA
ENDROOT
TORSDOF 0
REMARK  Name = ../refined-set-2016/4ymg/4ymg_pocket.pdb
REMARK  237 active torsions:
REMARK  status: ('A' for Active; 'I' for Inactive)
REMARK    1  A    between atoms: _1  and  _3
REMARK    2  A    between atoms: _3  and  _4
REMARK    3  A    between atoms: _3  and  _6
REMARK    4  A    between atoms: _6  and  _7
REMARK    5  A    between atoms: _12  and  _14
REMARK    6  A    between atoms: _14  and  _15
REMARK    7  A    between atoms: _14  and  _17
REMARK    8  A    between atoms: _17  and  _18
REMARK    9  A    between atoms: _28  and  _30
REMARK   10  A    between atoms: _30  and  _31
REMARK   11  A    between atoms: _30  and  _33
REMARK   12  A    between atoms: _33  and  _34
REMARK   13  A    between atoms: _37  and  _39
REMARK   14  A    between atoms: _39  and  _40
REMARK   15  A    between atoms: _39  and  _42
REMARK   16  A    between atoms: _42  and  _43
REMARK   17  A    between atoms: _46  and  _48
REMARK   18  A    between atoms: _48  and  _49
REMARK   19  A    between atoms: _52  and  _54
REMARK   20  A    between atoms: _54  and  _55
REMARK   21  A    between atoms: _54  and  _57
REMARK   22  A    between atoms: _57  and  _58
REMARK   23  A    between atoms: _61  and  _63
REMARK   24  A    between atoms: _63  and  _64
REMARK   25  A    between atoms: _63  and  _66
REMARK   26  A    between atoms: _66  and  _67
REMARK   27  A    between atoms: _67  and  _68
REMARK   28  A    between atoms: _68  and  _69
REMARK   29  A    between atoms: _69  and  _70
REMARK   30  A    between atoms: _74  and  _76
REMARK   31  A    between atoms: _76  and  _77
REMARK   32  A    between atoms: _76  and  _79
REMARK   33  A    between atoms: _79  and  _80
REMARK   34  A    between atoms: _80  and  _81
REMARK   35  A    between atoms: _83  and  _85
REMARK   36  A    between atoms: _85  and  _86
REMARK   37  A    between atoms: _85  and  _88
REMARK   38  A    between atoms: _88  and  _89
REMARK   39  A    between atoms: _91  and  _93
REMARK   40  A    between atoms: _93  and  _94
REMARK   41  A    between atoms: _93  and  _96
REMARK   42  A    between atoms: _96  and  _97
REMARK   43  A    between atoms: _99  and  _101
REMARK   44  A    between atoms: _101  and  _102
REMARK   45  A    between atoms: _101  and  _104
REMARK   46  A    between atoms: _104  and  _105
REMARK   47  A    between atoms: _105  and  _106
REMARK   48  A    between atoms: _111  and  _113
REMARK   49  A    between atoms: _113  and  _114
REMARK   50  A    between atoms: _116  and  _118
REMARK   51  A    between atoms: _118  and  _119
REMARK   52  A    between atoms: _118  and  _121
REMARK   53  A    between atoms: _121  and  _122
REMARK   54  A    between atoms: _122  and  _123
REMARK   55  A    between atoms: _125  and  _127
REMARK   56  A    between atoms: _127  and  _128
REMARK   57  A    between atoms: _127  and  _130
REMARK   58  A    between atoms: _130  and  _131
REMARK   59  A    between atoms: _131  and  _132
REMARK   60  A    between atoms: _135  and  _137
REMARK   61  A    between atoms: _137  and  _138
REMARK   62  A    between atoms: _137  and  _140
REMARK   63  A    between atoms: _140  and  _141
REMARK   64  A    between atoms: _144  and  _146
REMARK   65  A    between atoms: _146  and  _147
REMARK   66  A    between atoms: _149  and  _151
REMARK   67  A    between atoms: _151  and  _152
REMARK   68  A    between atoms: _151  and  _154
REMARK   69  A    between atoms: _156  and  _158
REMARK   70  A    between atoms: _158  and  _159
REMARK   71  A    between atoms: _158  and  _161
REMARK   72  A    between atoms: _161  and  _162
REMARK   73  A    between atoms: _167  and  _168
REMARK   74  A    between atoms: _170  and  _172
REMARK   75  A    between atoms: _172  and  _173
REMARK   76  A    between atoms: _172  and  _175
REMARK   77  A    between atoms: _175  and  _176
REMARK   78  A    between atoms: _178  and  _180
REMARK   79  A    between atoms: _180  and  _181
REMARK   80  A    between atoms: _183  and  _185
REMARK   81  A    between atoms: _185  and  _186
REMARK   82  A    between atoms: _185  and  _188
REMARK   83  A    between atoms: _188  and  _189
REMARK   84  A    between atoms: _194  and  _195
REMARK   85  A    between atoms: _197  and  _199
REMARK   86  A    between atoms: _199  and  _200
REMARK   87  A    between atoms: _199  and  _202
REMARK   88  A    between atoms: _202  and  _203
REMARK   89  A    between atoms: _205  and  _207
REMARK   90  A    between atoms: _207  and  _208
REMARK   91  A    between atoms: _211  and  _213
REMARK   92  A    between atoms: _213  and  _214
REMARK   93  A    between atoms: _213  and  _216
REMARK   94  A    between atoms: _216  and  _217
REMARK   95  A    between atoms: _220  and  _222
REMARK   96  A    between atoms: _222  and  _223
REMARK   97  A    between atoms: _226  and  _228
REMARK   98  A    between atoms: _228  and  _229
REMARK   99  A    between atoms: _228  and  _231
REMARK  100  A    between atoms: _231  and  _232
REMARK  101  A    between atoms: _242  and  _244
REMARK  102  A    between atoms: _244  and  _245
REMARK  103  A    between atoms: _244  and  _247
REMARK  104  A    between atoms: _247  and  _248
REMARK  105  A    between atoms: _251  and  _253
REMARK  106  A    between atoms: _253  and  _254
REMARK  107  A    between atoms: _253  and  _256
REMARK  108  A    between atoms: _256  and  _257
REMARK  109  A    between atoms: _260  and  _262
REMARK  110  A    between atoms: _262  and  _263
REMARK  111  A    between atoms: _262  and  _265
REMARK  112  A    between atoms: _265  and  _266
REMARK  113  A    between atoms: _266  and  _267
REMARK  114  A    between atoms: _270  and  _272
REMARK  115  A    between atoms: _272  and  _273
REMARK  116  A    between atoms: _272  and  _275
REMARK  117  A    between atoms: _275  and  _276
REMARK  118  A    between atoms: _281  and  _282
REMARK  119  A    between atoms: _284  and  _286
REMARK  120  A    between atoms: _286  and  _287
REMARK  121  A    between atoms: _286  and  _289
REMARK  122  A    between atoms: _289  and  _290
REMARK  123  A    between atoms: _293  and  _294
REMARK  124  A    between atoms: _299  and  _301
REMARK  125  A    between atoms: _301  and  _302
REMARK  126  A    between atoms: _301  and  _304
REMARK  127  A    between atoms: _304  and  _305
REMARK  128  A    between atoms: _305  and  _306
REMARK  129  A    between atoms: _306  and  _307
REMARK  130  A    between atoms: _307  and  _308
REMARK  131  A    between atoms: _312  and  _314
REMARK  132  A    between atoms: _314  and  _315
REMARK  133  A    between atoms: _314  and  _317
REMARK  134  A    between atoms: _317  and  _318
REMARK  135  A    between atoms: _318  and  _319
REMARK  136  A    between atoms: _321  and  _323
REMARK  137  A    between atoms: _323  and  _324
REMARK  138  A    between atoms: _323  and  _326
REMARK  139  A    between atoms: _326  and  _327
REMARK  140  A    between atoms: _330  and  _332
REMARK  141  A    between atoms: _332  and  _333
REMARK  142  A    between atoms: _332  and  _335
REMARK  143  A    between atoms: _335  and  _336
REMARK  144  A    between atoms: _338  and  _340
REMARK  145  A    between atoms: _340  and  _341
REMARK  146  A    between atoms: _340  and  _343
REMARK  147  A    between atoms: _343  and  _344
REMARK  148  A    between atoms: _347  and  _349
REMARK  149  A    between atoms: _349  and  _350
REMARK  150  A    between atoms: _349  and  _352
REMARK  151  A    between atoms: _352  and  _353
REMARK  152  A    between atoms: _353  and  _354
REMARK  153  A    between atoms: _357  and  _359
REMARK  154  A    between atoms: _359  and  _360
REMARK  155  A    between atoms: _363  and  _364
REMARK  156  A    between atoms: _369  and  _371
REMARK  157  A    between atoms: _371  and  _372
REMARK  158  A    between atoms: _375  and  _377
REMARK  159  A    between atoms: _377  and  _378
REMARK  160  A    between atoms: _377  and  _380
REMARK  161  A    between atoms: _380  and  _381
REMARK  162  A    between atoms: _381  and  _382
REMARK  163  A    between atoms: _385  and  _387
REMARK  164  A    between atoms: _387  and  _388
REMARK  165  A    between atoms: _387  and  _390
REMARK  166  A    between atoms: _390  and  _391
REMARK  167  A    between atoms: _396  and  _398
REMARK  168  A    between atoms: _398  and  _399
REMARK  169  A    between atoms: _398  and  _401
REMARK  170  A    between atoms: _401  and  _402
REMARK  171  A    between atoms: _405  and  _407
REMARK  172  A    between atoms: _407  and  _408
REMARK  173  A    between atoms: _407  and  _410
REMARK  174  A    between atoms: _410  and  _411
REMARK  175  A    between atoms: _414  and  _416
REMARK  176  A    between atoms: _416  and  _417
REMARK  177  A    between atoms: _416  and  _419
REMARK  178  A    between atoms: _419  and  _420
REMARK  179  A    between atoms: _426  and  _428
REMARK  180  A    between atoms: _428  and  _429
REMARK  181  A    between atoms: _428  and  _431
REMARK  182  A    between atoms: _434  and  _436
REMARK  183  A    between atoms: _436  and  _437
REMARK  184  A    between atoms: _436  and  _439
REMARK  185  A    between atoms: _439  and  _440
REMARK  186  A    between atoms: _443  and  _445
REMARK  187  A    between atoms: _445  and  _446
REMARK  188  A    between atoms: _449  and  _451
REMARK  189  A    between atoms: _451  and  _452
REMARK  190  A    between atoms: _451  and  _454
REMARK  191  A    between atoms: _454  and  _455
REMARK  192  A    between atoms: _460  and  _462
REMARK  193  A    between atoms: _462  and  _463
REMARK  194  A    between atoms: _462  and  _465
REMARK  195  A    between atoms: _465  and  _466
REMARK  196  A    between atoms: _466  and  _467
REMARK  197  A    between atoms: _467  and  _468
REMARK  198  A    between atoms: _468  and  _469
REMARK  199  A    between atoms: _473  and  _475
REMARK  200  A    between atoms: _475  and  _476
REMARK  201  A    between atoms: _475  and  _478
REMARK  202  A    between atoms: _478  and  _479
REMARK  203  A    between atoms: _482  and  _484
REMARK  204  A    between atoms: _484  and  _485
REMARK  205  A    between atoms: _487  and  _489
REMARK  206  A    between atoms: _489  and  _490
REMARK  207  A    between atoms: _489  and  _492
REMARK  208  A    between atoms: _492  and  _493
REMARK  209  A    between atoms: _498  and  _499
REMARK  210  A    between atoms: _501  and  _503
REMARK  211  A    between atoms: _503  and  _504
REMARK  212  A    between atoms: _503  and  _506
REMARK  213  A    between atoms: _506  and  _507
REMARK  214  A    between atoms: _512  and  _513
REMARK  215  A    between atoms: _515  and  _517
REMARK  216  A    between atoms: _517  and  _518
REMARK  217  A    between atoms: _517  and  _520
REMARK  218  A    between atoms: _520  and  _521
REMARK  219  A    between atoms: _524  and  _526
REMARK  220  A    between atoms: _526  and  _527
REMARK  221  A    between atoms: _526  and  _529
REMARK  222  A    between atoms: _529  and  _530
REMARK  223  A    between atoms: _535  and  _537
REMARK  224  A    between atoms: _537  and  _538
REMARK  225  A    between atoms: _537  and  _540
REMARK  226  A    between atoms: _540  and  _541
REMARK  227  A    between atoms: _541  and  _542
REMARK  228  A    between atoms: _542  and  _543
REMARK  229  A    between atoms: _552  and  _554
REMARK  230  A    between atoms: _554  and  _555
REMARK  231  A    between atoms: _554  and  _557
REMARK  232  A    between atoms: _557  and  _558
REMARK  233  A    between atoms: _563  and  _564
REMARK  234  A    between atoms: _566  and  _568
REMARK  235  A    between atoms: _568  and  _569
REMARK  236  A    between atoms: _568  and  _571
REMARK  237  A    between atoms: _571  and  _572
REMARK                            x       y       z     vdW  Elec       q    Type
REMARK                         _______ _______ _______ _____ _____    ______ ____
ROOT
ATOM      1  O   HOH     1       4.753   3.790 -25.801  0.00  0.00    +0.000 OA
ENDROOT
TORSDOF 0
REMARK  Name = ../refined-set-2016/4ymg/4ymg_pocket.pdb
REMARK  237 active torsions:
REMARK  status: ('A' for Active; 'I' for Inactive)
REMARK    1  A    between atoms: _1  and  _3
REMARK    2  A    between atoms: _3  and  _4
REMARK    3  A    between atoms: _3  and  _6
REMARK    4  A    between atoms: _6  and  _7
REMARK    5  A    between atoms: _12  and  _14
REMARK    6  A    between atoms: _14  and  _15
REMARK    7  A    between atoms: _14  and  _17
REMARK    8  A    between atoms: _17  and  _18
REMARK    9  A    between atoms: _28  and  _30
REMARK   10  A    between atoms: _30  and  _31
REMARK   11  A    between atoms: _30  and  _33
REMARK   12  A    between atoms: _33  and  _34
REMARK   13  A    between atoms: _37  and  _39
REMARK   14  A    between atoms: _39  and  _40
REMARK   15  A    between atoms: _39  and  _42
REMARK   16  A    between atoms: _42  and  _43
REMARK   17  A    between atoms: _46  and  _48
REMARK   18  A    between atoms: _48  and  _49
REMARK   19  A    between atoms: _52  and  _54
REMARK   20  A    between atoms: _54  and  _55
REMARK   21  A    between atoms: _54  and  _57
REMARK   22  A    between atoms: _57  and  _58
REMARK   23  A    between atoms: _61  and  _63
REMARK   24  A    between atoms: _63  and  _64
REMARK   25  A    between atoms: _63  and  _66
REMARK   26  A    between atoms: _66  and  _67
REMARK   27  A    between atoms: _67  and  _68
REMARK   28  A    between atoms: _68  and  _69
REMARK   29  A    between atoms: _69  and  _70
REMARK   30  A    between atoms: _74  and  _76
REMARK   31  A    between atoms: _76  and  _77
REMARK   32  A    between atoms: _76  and  _79
REMARK   33  A    between atoms: _79  and  _80
REMARK   34  A    between atoms: _80  and  _81
REMARK   35  A    between atoms: _83  and  _85
REMARK   36  A    between atoms: _85  and  _86
REMARK   37  A    between atoms: _85  and  _88
REMARK   38  A    between atoms: _88  and  _89
REMARK   39  A    between atoms: _91  and  _93
REMARK   40  A    between atoms: _93  and  _94
REMARK   41  A    between atoms: _93  and  _96
REMARK   42  A    between atoms: _96  and  _97
REMARK   43  A    between atoms: _99  and  _101
REMARK   44  A    between atoms: _101  and  _102
REMARK   45  A    between atoms: _101  and  _104
REMARK   46  A    between atoms: _104  and  _105
REMARK   47  A    between atoms: _105  and  _106
REMARK   48  A    between atoms: _111  and  _113
REMARK   49  A    between atoms: _113  and  _114
REMARK   50  A    between atoms: _116  and  _118
REMARK   51  A    between atoms: _118  and  _119
REMARK   52  A    between atoms: _118  and  _121
REMARK   53  A    between atoms: _121  and  _122
REMARK   54  A    between atoms: _122  and  _123
REMARK   55  A    between atoms: _125  and  _127
REMARK   56  A    between atoms: _127  and  _128
REMARK   57  A    between atoms: _127  and  _130
REMARK   58  A    between atoms: _130  and  _131
REMARK   59  A    between atoms: _131  and  _132
REMARK   60  A    between atoms: _135  and  _137
REMARK   61  A    between atoms: _137  and  _138
REMARK   62  A    between atoms: _137  and  _140
REMARK   63  A    between atoms: _140  and  _141
REMARK   64  A    between atoms: _144  and  _146
REMARK   65  A    between atoms: _146  and  _147
REMARK   66  A    between atoms: _149  and  _151
REMARK   67  A    between atoms: _151  and  _152
REMARK   68  A    between atoms: _151  and  _154
REMARK   69  A    between atoms: _156  and  _158
REMARK   70  A    between atoms: _158  and  _159
REMARK   71  A    between atoms: _158  and  _161
REMARK   72  A    between atoms: _161  and  _162
REMARK   73  A    between atoms: _167  and  _168
REMARK   74  A    between atoms: _170  and  _172
REMARK   75  A    between atoms: _172  and  _173
REMARK   76  A    between atoms: _172  and  _175
REMARK   77  A    between atoms: _175  and  _176
REMARK   78  A    between atoms: _178  and  _180
REMARK   79  A    between atoms: _180  and  _181
REMARK   80  A    between atoms: _183  and  _185
REMARK   81  A    between atoms: _185  and  _186
REMARK   82  A    between atoms: _185  and  _188
REMARK   83  A    between atoms: _188  and  _189
REMARK   84  A    between atoms: _194  and  _195
REMARK   85  A    between atoms: _197  and  _199
REMARK   86  A    between atoms: _199  and  _200
REMARK   87  A    between atoms: _199  and  _202
REMARK   88  A    between atoms: _202  and  _203
REMARK   89  A    between atoms: _205  and  _207
REMARK   90  A    between atoms: _207  and  _208
REMARK   91  A    between atoms: _211  and  _213
REMARK   92  A    between atoms: _213  and  _214
REMARK   93  A    between atoms: _213  and  _216
REMARK   94  A    between atoms: _216  and  _217
REMARK   95  A    between atoms: _220  and  _222
REMARK   96  A    between atoms: _222  and  _223
REMARK   97  A    between atoms: _226  and  _228
REMARK   98  A    between atoms: _228  and  _229
REMARK   99  A    between atoms: _228  and  _231
REMARK  100  A    between atoms: _231  and  _232
REMARK  101  A    between atoms: _242  and  _244
REMARK  102  A    between atoms: _244  and  _245
REMARK  103  A    between atoms: _244  and  _247
REMARK  104  A    between atoms: _247  and  _248
REMARK  105  A    between atoms: _251  and  _253
REMARK  106  A    between atoms: _253  and  _254
REMARK  107  A    between atoms: _253  and  _256
REMARK  108  A    between atoms: _256  and  _257
REMARK  109  A    between atoms: _260  and  _262
REMARK  110  A    between atoms: _262  and  _263
REMARK  111  A    between atoms: _262  and  _265
REMARK  112  A    between atoms: _265  and  _266
REMARK  113  A    between atoms: _266  and  _267
REMARK  114  A    between atoms: _270  and  _272
REMARK  115  A    between atoms: _272  and  _273
REMARK  116  A    between atoms: _272  and  _275
REMARK  117  A    between atoms: _275  and  _276
REMARK  118  A    between atoms: _281  and  _282
REMARK  119  A    between atoms: _284  and  _286
REMARK  120  A    between atoms: _286  and  _287
REMARK  121  A    between atoms: _286  and  _289
REMARK  122  A    between atoms: _289  and  _290
REMARK  123  A    between atoms: _293  and  _294
REMARK  124  A    between atoms: _299  and  _301
REMARK  125  A    between atoms: _301  and  _302
REMARK  126  A    between atoms: _301  and  _304
REMARK  127  A    between atoms: _304  and  _305
REMARK  128  A    between atoms: _305  and  _306
REMARK  129  A    between atoms: _306  and  _307
REMARK  130  A    between atoms: _307  and  _308
REMARK  131  A    between atoms: _312  and  _314
REMARK  132  A    between atoms: _314  and  _315
REMARK  133  A    between atoms: _314  and  _317
REMARK  134  A    between atoms: _317  and  _318
REMARK  135  A    between atoms: _318  and  _319
REMARK  136  A    between atoms: _321  and  _323
REMARK  137  A    between atoms: _323  and  _324
REMARK  138  A    between atoms: _323  and  _326
REMARK  139  A    between atoms: _326  and  _327
REMARK  140  A    between atoms: _330  and  _332
REMARK  141  A    between atoms: _332  and  _333
REMARK  142  A    between atoms: _332  and  _335
REMARK  143  A    between atoms: _335  and  _336
REMARK  144  A    between atoms: _338  and  _340
REMARK  145  A    between atoms: _340  and  _341
REMARK  146  A    between atoms: _340  and  _343
REMARK  147  A    between atoms: _343  and  _344
REMARK  148  A    between atoms: _347  and  _349
REMARK  149  A    between atoms: _349  and  _350
REMARK  150  A    between atoms: _349  and  _352
REMARK  151  A    between atoms: _352  and  _353
REMARK  152  A    between atoms: _353  and  _354
REMARK  153  A    between atoms: _357  and  _359
REMARK  154  A    between atoms: _359  and  _360
REMARK  155  A    between atoms: _363  and  _364
REMARK  156  A    between atoms: _369  and  _371
REMARK  157  A    between atoms: _371  and  _372
REMARK  158  A    between atoms: _375  and  _377
REMARK  159  A    between atoms: _377  and  _378
REMARK  160  A    between atoms: _377  and  _380
REMARK  161  A    between atoms: _380  and  _381
REMARK  162  A    between atoms: _381  and  _382
REMARK  163  A    between atoms: _385  and  _387
REMARK  164  A    between atoms: _387  and  _388
REMARK  165  A    between atoms: _387  and  _390
REMARK  166  A    between atoms: _390  and  _391
REMARK  167  A    between atoms: _396  and  _398
REMARK  168  A    between atoms: _398  and  _399
REMARK  169  A    between atoms: _398  and  _401
REMARK  170  A    between atoms: _401  and  _402
REMARK  171  A    between atoms: _405  and  _407
REMARK  172  A    between atoms: _407  and  _408
REMARK  173  A    between atoms: _407  and  _410
REMARK  174  A    between atoms: _410  and  _411
REMARK  175  A    between atoms: _414  and  _416
REMARK  176  A    between atoms: _416  and  _417
REMARK  177  A    between atoms: _416  and  _419
REMARK  178  A    between atoms: _419  and  _420
REMARK  179  A    between atoms: _426  and  _428
REMARK  180  A    between atoms: _428  and  _429
REMARK  181  A    between atoms: _428  and  _431
REMARK  182  A    between atoms: _434  and  _436
REMARK  183  A    between atoms: _436  and  _437
REMARK  184  A    between atoms: _436  and  _439
REMARK  185  A    between atoms: _439  and  _440
REMARK  186  A    between atoms: _443  and  _445
REMARK  187  A    between atoms: _445  and  _446
REMARK  188  A    between atoms: _449  and  _451
REMARK  189  A    between atoms: _451  and  _452
REMARK  190  A    between atoms: _451  and  _454
REMARK  191  A    between atoms: _454  and  _455
REMARK  192  A    between atoms: _460  and  _462
REMARK  193  A    between atoms: _462  and  _463
REMARK  194  A    between atoms: _462  and  _465
REMARK  195  A    between atoms: _465  and  _466
REMARK  196  A    between atoms: _466  and  _467
REMARK  197  A    between atoms: _467  and  _468
REMARK  198  A    between atoms: _468  and  _469
REMARK  199  A    between atoms: _473  and  _475
REMARK  200  A    between atoms: _475  and  _476
REMARK  201  A    between atoms: _475  and  _478
REMARK  202  A    between atoms: _478  and  _479
REMARK  203  A    between atoms: _482  and  _484
REMARK  204  A    between atoms: _484  and  _485
REMARK  205  A    between atoms: _487  and  _489
REMARK  206  A    between atoms: _489  and  _490
REMARK  207  A    between atoms: _489  and  _492
REMARK  208  A    between atoms: _492  and  _493
REMARK  209  A    between atoms: _498  and  _499
REMARK  210  A    between atoms: _501  and  _503
REMARK  211  A    between atoms: _503  and  _504
REMARK  212  A    between atoms: _503  and  _506
REMARK  213  A    between atoms: _506  and  _507
REMARK  214  A    between atoms: _512  and  _513
REMARK  215  A    between atoms: _515  and  _517
REMARK  216  A    between atoms: _517  and  _518
REMARK  217  A    between atoms: _517  and  _520
REMARK  218  A    between atoms: _520  and  _521
REMARK  219  A    between atoms: _524  and  _526
REMARK  220  A    between atoms: _526  and  _527
REMARK  221  A    between atoms: _526  and  _529
REMARK  222  A    between atoms: _529  and  _530
REMARK  223  A    between atoms: _535  and  _537
REMARK  224  A    between atoms: _537  and  _538
REMARK  225  A    between atoms: _537  and  _540
REMARK  226  A    between atoms: _540  and  _541
REMARK  227  A    between atoms: _541  and  _542
REMARK  228  A    between atoms: _542  and  _543
REMARK  229  A    between atoms: _552  and  _554
REMARK  230  A    between atoms: _554  and  _555
REMARK  231  A    between atoms: _554  and  _557
REMARK  232  A    between atoms: _557  and  _558
REMARK  233  A    between atoms: _563  and  _564
REMARK  234  A    between atoms: _566  and  _568
REMARK  235  A    between atoms: _568  and  _569
REMARK  236  A    between atoms: _568  and  _571
REMARK  237  A    between atoms: _571  and  _572
REMARK                            x       y       z     vdW  Elec       q    Type
REMARK                         _______ _______ _______ _____ _____    ______ ____
ROOT
ATOM      1  O   HOH     1      -7.000   5.437 -14.559  0.00  0.00    +0.000 OA
ENDROOT
TORSDOF 0
REMARK  Name = ../refined-set-2016/4ymg/4ymg_pocket.pdb
REMARK  237 active torsions:
REMARK  status: ('A' for Active; 'I' for Inactive)
REMARK    1  A    between atoms: _1  and  _3
REMARK    2  A    between atoms: _3  and  _4
REMARK    3  A    between atoms: _3  and  _6
REMARK    4  A    between atoms: _6  and  _7
REMARK    5  A    between atoms: _12  and  _14
REMARK    6  A    between atoms: _14  and  _15
REMARK    7  A    between atoms: _14  and  _17
REMARK    8  A    between atoms: _17  and  _18
REMARK    9  A    between atoms: _28  and  _30
REMARK   10  A    between atoms: _30  and  _31
REMARK   11  A    between atoms: _30  and  _33
REMARK   12  A    between atoms: _33  and  _34
REMARK   13  A    between atoms: _37  and  _39
REMARK   14  A    between atoms: _39  and  _40
REMARK   15  A    between atoms: _39  and  _42
REMARK   16  A    between atoms: _42  and  _43
REMARK   17  A    between atoms: _46  and  _48
REMARK   18  A    between atoms: _48  and  _49
REMARK   19  A    between atoms: _52  and  _54
REMARK   20  A    between atoms: _54  and  _55
REMARK   21  A    between atoms: _54  and  _57
REMARK   22  A    between atoms: _57  and  _58
REMARK   23  A    between atoms: _61  and  _63
REMARK   24  A    between atoms: _63  and  _64
REMARK   25  A    between atoms: _63  and  _66
REMARK   26  A    between atoms: _66  and  _67
REMARK   27  A    between atoms: _67  and  _68
REMARK   28  A    between atoms: _68  and  _69
REMARK   29  A    between atoms: _69  and  _70
REMARK   30  A    between atoms: _74  and  _76
REMARK   31  A    between atoms: _76  and  _77
REMARK   32  A    between atoms: _76  and  _79
REMARK   33  A    between atoms: _79  and  _80
REMARK   34  A    between atoms: _80  and  _81
REMARK   35  A    between atoms: _83  and  _85
REMARK   36  A    between atoms: _85  and  _86
REMARK   37  A    between atoms: _85  and  _88
REMARK   38  A    between atoms: _88  and  _89
REMARK   39  A    between atoms: _91  and  _93
REMARK   40  A    between atoms: _93  and  _94
REMARK   41  A    between atoms: _93  and  _96
REMARK   42  A    between atoms: _96  and  _97
REMARK   43  A    between atoms: _99  and  _101
REMARK   44  A    between atoms: _101  and  _102
REMARK   45  A    between atoms: _101  and  _104
REMARK   46  A    between atoms: _104  and  _105
REMARK   47  A    between atoms: _105  and  _106
REMARK   48  A    between atoms: _111  and  _113
REMARK   49  A    between atoms: _113  and  _114
REMARK   50  A    between atoms: _116  and  _118
REMARK   51  A    between atoms: _118  and  _119
REMARK   52  A    between atoms: _118  and  _121
REMARK   53  A    between atoms: _121  and  _122
REMARK   54  A    between atoms: _122  and  _123
REMARK   55  A    between atoms: _125  and  _127
REMARK   56  A    between atoms: _127  and  _128
REMARK   57  A    between atoms: _127  and  _130
REMARK   58  A    between atoms: _130  and  _131
REMARK   59  A    between atoms: _131  and  _132
REMARK   60  A    between atoms: _135  and  _137
REMARK   61  A    between atoms: _137  and  _138
REMARK   62  A    between atoms: _137  and  _140
REMARK   63  A    between atoms: _140  and  _141
REMARK   64  A    between atoms: _144  and  _146
REMARK   65  A    between atoms: _146  and  _147
REMARK   66  A    between atoms: _149  and  _151
REMARK   67  A    between atoms: _151  and  _152
REMARK   68  A    between atoms: _151  and  _154
REMARK   69  A    between atoms: _156  and  _158
REMARK   70  A    between atoms: _158  and  _159
REMARK   71  A    between atoms: _158  and  _161
REMARK   72  A    between atoms: _161  and  _162
REMARK   73  A    between atoms: _167  and  _168
REMARK   74  A    between atoms: _170  and  _172
REMARK   75  A    between atoms: _172  and  _173
REMARK   76  A    between atoms: _172  and  _175
REMARK   77  A    between atoms: _175  and  _176
REMARK   78  A    between atoms: _178  and  _180
REMARK   79  A    between atoms: _180  and  _181
REMARK   80  A    between atoms: _183  and  _185
REMARK   81  A    between atoms: _185  and  _186
REMARK   82  A    between atoms: _185  and  _188
REMARK   83  A    between atoms: _188  and  _189
REMARK   84  A    between atoms: _194  and  _195
REMARK   85  A    between atoms: _197  and  _199
REMARK   86  A    between atoms: _199  and  _200
REMARK   87  A    between atoms: _199  and  _202
REMARK   88  A    between atoms: _202  and  _203
REMARK   89  A    between atoms: _205  and  _207
REMARK   90  A    between atoms: _207  and  _208
REMARK   91  A    between atoms: _211  and  _213
REMARK   92  A    between atoms: _213  and  _214
REMARK   93  A    between atoms: _213  and  _216
REMARK   94  A    between atoms: _216  and  _217
REMARK   95  A    between atoms: _220  and  _222
REMARK   96  A    between atoms: _222  and  _223
REMARK   97  A    between atoms: _226  and  _228
REMARK   98  A    between atoms: _228  and  _229
REMARK   99  A    between atoms: _228  and  _231
REMARK  100  A    between atoms: _231  and  _232
REMARK  101  A    between atoms: _242  and  _244
REMARK  102  A    between atoms: _244  and  _245
REMARK  103  A    between atoms: _244  and  _247
REMARK  104  A    between atoms: _247  and  _248
REMARK  105  A    between atoms: _251  and  _253
REMARK  106  A    between atoms: _253  and  _254
REMARK  107  A    between atoms: _253  and  _256
REMARK  108  A    between atoms: _256  and  _257
REMARK  109  A    between atoms: _260  and  _262
REMARK  110  A    between atoms: _262  and  _263
REMARK  111  A    between atoms: _262  and  _265
REMARK  112  A    between atoms: _265  and  _266
REMARK  113  A    between atoms: _266  and  _267
REMARK  114  A    between atoms: _270  and  _272
REMARK  115  A    between atoms: _272  and  _273
REMARK  116  A    between atoms: _272  and  _275
REMARK  117  A    between atoms: _275  and  _276
REMARK  118  A    between atoms: _281  and  _282
REMARK  119  A    between atoms: _284  and  _286
REMARK  120  A    between atoms: _286  and  _287
REMARK  121  A    between atoms: _286  and  _289
REMARK  122  A    between atoms: _289  and  _290
REMARK  123  A    between atoms: _293  and  _294
REMARK  124  A    between atoms: _299  and  _301
REMARK  125  A    between atoms: _301  and  _302
REMARK  126  A    between atoms: _301  and  _304
REMARK  127  A    between atoms: _304  and  _305
REMARK  128  A    between atoms: _305  and  _306
REMARK  129  A    between atoms: _306  and  _307
REMARK  130  A    between atoms: _307  and  _308
REMARK  131  A    between atoms: _312  and  _314
REMARK  132  A    between atoms: _314  and  _315
REMARK  133  A    between atoms: _314  and  _317
REMARK  134  A    between atoms: _317  and  _318
REMARK  135  A    between atoms: _318  and  _319
REMARK  136  A    between atoms: _321  and  _323
REMARK  137  A    between atoms: _323  and  _324
REMARK  138  A    between atoms: _323  and  _326
REMARK  139  A    between atoms: _326  and  _327
REMARK  140  A    between atoms: _330  and  _332
REMARK  141  A    between atoms: _332  and  _333
REMARK  142  A    between atoms: _332  and  _335
REMARK  143  A    between atoms: _335  and  _336
REMARK  144  A    between atoms: _338  and  _340
REMARK  145  A    between atoms: _340  and  _341
REMARK  146  A    between atoms: _340  and  _343
REMARK  147  A    between atoms: _343  and  _344
REMARK  148  A    between atoms: _347  and  _349
REMARK  149  A    between atoms: _349  and  _350
REMARK  150  A    between atoms: _349  and  _352
REMARK  151  A    between atoms: _352  and  _353
REMARK  152  A    between atoms: _353  and  _354
REMARK  153  A    between atoms: _357  and  _359
REMARK  154  A    between atoms: _359  and  _360
REMARK  155  A    between atoms: _363  and  _364
REMARK  156  A    between atoms: _369  and  _371
REMARK  157  A    between atoms: _371  and  _372
REMARK  158  A    between atoms: _375  and  _377
REMARK  159  A    between atoms: _377  and  _378
REMARK  160  A    between atoms: _377  and  _380
REMARK  161  A    between atoms: _380  and  _381
REMARK  162  A    between atoms: _381  and  _382
REMARK  163  A    between atoms: _385  and  _387
REMARK  164  A    between atoms: _387  and  _388
REMARK  165  A    between atoms: _387  and  _390
REMARK  166  A    between atoms: _390  and  _391
REMARK  167  A    between atoms: _396  and  _398
REMARK  168  A    between atoms: _398  and  _399
REMARK  169  A    between atoms: _398  and  _401
REMARK  170  A    between atoms: _401  and  _402
REMARK  171  A    between atoms: _405  and  _407
REMARK  172  A    between atoms: _407  and  _408
REMARK  173  A    between atoms: _407  and  _410
REMARK  174  A    between atoms: _410  and  _411
REMARK  175  A    between atoms: _414  and  _416
REMARK  176  A    between atoms: _416  and  _417
REMARK  177  A    between atoms: _416  and  _419
REMARK  178  A    between atoms: _419  and  _420
REMARK  179  A    between atoms: _426  and  _428
REMARK  180  A    between atoms: _428  and  _429
REMARK  181  A    between atoms: _428  and  _431
REMARK  182  A    between atoms: _434  and  _436
REMARK  183  A    between atoms: _436  and  _437
REMARK  184  A    between atoms: _436  and  _439
REMARK  185  A    between atoms: _439  and  _440
REMARK  186  A    between atoms: _443  and  _445
REMARK  187  A    between atoms: _445  and  _446
REMARK  188  A    between atoms: _449  and  _451
REMARK  189  A    between atoms: _451  and  _452
REMARK  190  A    between atoms: _451  and  _454
REMARK  191  A    between atoms: _454  and  _455
REMARK  192  A    between atoms: _460  and  _462
REMARK  193  A    between atoms: _462  and  _463
REMARK  194  A    between atoms: _462  and  _465
REMARK  195  A    between atoms: _465  and  _466
REMARK  196  A    between atoms: _466  and  _467
REMARK  197  A    between atoms: _467  and  _468
REMARK  198  A    between atoms: _468  and  _469
REMARK  199  A    between atoms: _473  and  _475
REMARK  200  A    between atoms: _475  and  _476
REMARK  201  A    between atoms: _475  and  _478
REMARK  202  A    between atoms: _478  and  _479
REMARK  203  A    between atoms: _482  and  _484
REMARK  204  A    between atoms: _484  and  _485
REMARK  205  A    between atoms: _487  and  _489
REMARK  206  A    between atoms: _489  and  _490
REMARK  207  A    between atoms: _489  and  _492
REMARK  208  A    between atoms: _492  and  _493
REMARK  209  A    between atoms: _498  and  _499
REMARK  210  A    between atoms: _501  and  _503
REMARK  211  A    between atoms: _503  and  _504
REMARK  212  A    between atoms: _503  and  _506
REMARK  213  A    between atoms: _506  and  _507
REMARK  214  A    between atoms: _512  and  _513
REMARK  215  A    between atoms: _515  and  _517
REMARK  216  A    between atoms: _517  and  _518
REMARK  217  A    between atoms: _517  and  _520
REMARK  218  A    between atoms: _520  and  _521
REMARK  219  A    between atoms: _524  and  _526
REMARK  220  A    between atoms: _526  and  _527
REMARK  221  A    between atoms: _526  and  _529
REMARK  222  A    between atoms: _529  and  _530
REMARK  223  A    between atoms: _535  and  _537
REMARK  224  A    between atoms: _537  and  _538
REMARK  225  A    between atoms: _537  and  _540
REMARK  226  A    between atoms: _540  and  _541
REMARK  227  A    between atoms: _541  and  _542
REMARK  228  A    between atoms: _542  and  _543
REMARK  229  A    between atoms: _552  and  _554
REMARK  230  A    between atoms: _554  and  _555
REMARK  231  A    between atoms: _554  and  _557
REMARK  232  A    between atoms: _557  and  _558
REMARK  233  A    between atoms: _563  and  _564
REMARK  234  A    between atoms: _566  and  _568
REMARK  235  A    between atoms: _568  and  _569
REMARK  236  A    between atoms: _568  and  _571
REMARK  237  A    between atoms: _571  and  _572
REMARK                            x       y       z     vdW  Elec       q    Type
REMARK                         _______ _______ _______ _____ _____    ______ ____
ROOT
ATOM      1  O   HOH     1      -5.781  -3.956 -18.392  0.00  0.00    +0.000 OA
ENDROOT
TORSDOF 0
REMARK  Name = ../refined-set-2016/4ymg/4ymg_pocket.pdb
REMARK  237 active torsions:
REMARK  status: ('A' for Active; 'I' for Inactive)
REMARK    1  A    between atoms: _1  and  _3
REMARK    2  A    between atoms: _3  and  _4
REMARK    3  A    between atoms: _3  and  _6
REMARK    4  A    between atoms: _6  and  _7
REMARK    5  A    between atoms: _12  and  _14
REMARK    6  A    between atoms: _14  and  _15
REMARK    7  A    between atoms: _14  and  _17
REMARK    8  A    between atoms: _17  and  _18
REMARK    9  A    between atoms: _28  and  _30
REMARK   10  A    between atoms: _30  and  _31
REMARK   11  A    between atoms: _30  and  _33
REMARK   12  A    between atoms: _33  and  _34
REMARK   13  A    between atoms: _37  and  _39
REMARK   14  A    between atoms: _39  and  _40
REMARK   15  A    between atoms: _39  and  _42
REMARK   16  A    between atoms: _42  and  _43
REMARK   17  A    between atoms: _46  and  _48
REMARK   18  A    between atoms: _48  and  _49
REMARK   19  A    between atoms: _52  and  _54
REMARK   20  A    between atoms: _54  and  _55
REMARK   21  A    between atoms: _54  and  _57
REMARK   22  A    between atoms: _57  and  _58
REMARK   23  A    between atoms: _61  and  _63
REMARK   24  A    between atoms: _63  and  _64
REMARK   25  A    between atoms: _63  and  _66
REMARK   26  A    between atoms: _66  and  _67
REMARK   27  A    between atoms: _67  and  _68
REMARK   28  A    between atoms: _68  and  _69
REMARK   29  A    between atoms: _69  and  _70
REMARK   30  A    between atoms: _74  and  _76
REMARK   31  A    between atoms: _76  and  _77
REMARK   32  A    between atoms: _76  and  _79
REMARK   33  A    between atoms: _79  and  _80
REMARK   34  A    between atoms: _80  and  _81
REMARK   35  A    between atoms: _83  and  _85
REMARK   36  A    between atoms: _85  and  _86
REMARK   37  A    between atoms: _85  and  _88
REMARK   38  A    between atoms: _88  and  _89
REMARK   39  A    between atoms: _91  and  _93
REMARK   40  A    between atoms: _93  and  _94
REMARK   41  A    between atoms: _93  and  _96
REMARK   42  A    between atoms: _96  and  _97
REMARK   43  A    between atoms: _99  and  _101
REMARK   44  A    between atoms: _101  and  _102
REMARK   45  A    between atoms: _101  and  _104
REMARK   46  A    between atoms: _104  and  _105
REMARK   47  A    between atoms: _105  and  _106
REMARK   48  A    between atoms: _111  and  _113
REMARK   49  A    between atoms: _113  and  _114
REMARK   50  A    between atoms: _116  and  _118
REMARK   51  A    between atoms: _118  and  _119
REMARK   52  A    between atoms: _118  and  _121
REMARK   53  A    between atoms: _121  and  _122
REMARK   54  A    between atoms: _122  and  _123
REMARK   55  A    between atoms: _125  and  _127
REMARK   56  A    between atoms: _127  and  _128
REMARK   57  A    between atoms: _127  and  _130
REMARK   58  A    between atoms: _130  and  _131
REMARK   59  A    between atoms: _131  and  _132
REMARK   60  A    between atoms: _135  and  _137
REMARK   61  A    between atoms: _137  and  _138
REMARK   62  A    between atoms: _137  and  _140
REMARK   63  A    between atoms: _140  and  _141
REMARK   64  A    between atoms: _144  and  _146
REMARK   65  A    between atoms: _146  and  _147
REMARK   66  A    between atoms: _149  and  _151
REMARK   67  A    between atoms: _151  and  _152
REMARK   68  A    between atoms: _151  and  _154
REMARK   69  A    between atoms: _156  and  _158
REMARK   70  A    between atoms: _158  and  _159
REMARK   71  A    between atoms: _158  and  _161
REMARK   72  A    between atoms: _161  and  _162
REMARK   73  A    between atoms: _167  and  _168
REMARK   74  A    between atoms: _170  and  _172
REMARK   75  A    between atoms: _172  and  _173
REMARK   76  A    between atoms: _172  and  _175
REMARK   77  A    between atoms: _175  and  _176
REMARK   78  A    between atoms: _178  and  _180
REMARK   79  A    between atoms: _180  and  _181
REMARK   80  A    between atoms: _183  and  _185
REMARK   81  A    between atoms: _185  and  _186
REMARK   82  A    between atoms: _185  and  _188
REMARK   83  A    between atoms: _188  and  _189
REMARK   84  A    between atoms: _194  and  _195
REMARK   85  A    between atoms: _197  and  _199
REMARK   86  A    between atoms: _199  and  _200
REMARK   87  A    between atoms: _199  and  _202
REMARK   88  A    between atoms: _202  and  _203
REMARK   89  A    between atoms: _205  and  _207
REMARK   90  A    between atoms: _207  and  _208
REMARK   91  A    between atoms: _211  and  _213
REMARK   92  A    between atoms: _213  and  _214
REMARK   93  A    between atoms: _213  and  _216
REMARK   94  A    between atoms: _216  and  _217
REMARK   95  A    between atoms: _220  and  _222
REMARK   96  A    between atoms: _222  and  _223
REMARK   97  A    between atoms: _226  and  _228
REMARK   98  A    between atoms: _228  and  _229
REMARK   99  A    between atoms: _228  and  _231
REMARK  100  A    between atoms: _231  and  _232
REMARK  101  A    between atoms: _242  and  _244
REMARK  102  A    between atoms: _244  and  _245
REMARK  103  A    between atoms: _244  and  _247
REMARK  104  A    between atoms: _247  and  _248
REMARK  105  A    between atoms: _251  and  _253
REMARK  106  A    between atoms: _253  and  _254
REMARK  107  A    between atoms: _253  and  _256
REMARK  108  A    between atoms: _256  and  _257
REMARK  109  A    between atoms: _260  and  _262
REMARK  110  A    between atoms: _262  and  _263
REMARK  111  A    between atoms: _262  and  _265
REMARK  112  A    between atoms: _265  and  _266
REMARK  113  A    between atoms: _266  and  _267
REMARK  114  A    between atoms: _270  and  _272
REMARK  115  A    between atoms: _272  and  _273
REMARK  116  A    between atoms: _272  and  _275
REMARK  117  A    between atoms: _275  and  _276
REMARK  118  A    between atoms: _281  and  _282
REMARK  119  A    between atoms: _284  and  _286
REMARK  120  A    between atoms: _286  and  _287
REMARK  121  A    between atoms: _286  and  _289
REMARK  122  A    between atoms: _289  and  _290
REMARK  123  A    between atoms: _293  and  _294
REMARK  124  A    between atoms: _299  and  _301
REMARK  125  A    between atoms: _301  and  _302
REMARK  126  A    between atoms: _301  and  _304
REMARK  127  A    between atoms: _304  and  _305
REMARK  128  A    between atoms: _305  and  _306
REMARK  129  A    between atoms: _306  and  _307
REMARK  130  A    between atoms: _307  and  _308
REMARK  131  A    between atoms: _312  and  _314
REMARK  132  A    between atoms: _314  and  _315
REMARK  133  A    between atoms: _314  and  _317
REMARK  134  A    between atoms: _317  and  _318
REMARK  135  A    between atoms: _318  and  _319
REMARK  136  A    between atoms: _321  and  _323
REMARK  137  A    between atoms: _323  and  _324
REMARK  138  A    between atoms: _323  and  _326
REMARK  139  A    between atoms: _326  and  _327
REMARK  140  A    between atoms: _330  and  _332
REMARK  141  A    between atoms: _332  and  _333
REMARK  142  A    between atoms: _332  and  _335
REMARK  143  A    between atoms: _335  and  _336
REMARK  144  A    between atoms: _338  and  _340
REMARK  145  A    between atoms: _340  and  _341
REMARK  146  A    between atoms: _340  and  _343
REMARK  147  A    between atoms: _343  and  _344
REMARK  148  A    between atoms: _347  and  _349
REMARK  149  A    between atoms: _349  and  _350
REMARK  150  A    between atoms: _349  and  _352
REMARK  151  A    between atoms: _352  and  _353
REMARK  152  A    between atoms: _353  and  _354
REMARK  153  A    between atoms: _357  and  _359
REMARK  154  A    between atoms: _359  and  _360
REMARK  155  A    between atoms: _363  and  _364
REMARK  156  A    between atoms: _369  and  _371
REMARK  157  A    between atoms: _371  and  _372
REMARK  158  A    between atoms: _375  and  _377
REMARK  159  A    between atoms: _377  and  _378
REMARK  160  A    between atoms: _377  and  _380
REMARK  161  A    between atoms: _380  and  _381
REMARK  162  A    between atoms: _381  and  _382
REMARK  163  A    between atoms: _385  and  _387
REMARK  164  A    between atoms: _387  and  _388
REMARK  165  A    between atoms: _387  and  _390
REMARK  166  A    between atoms: _390  and  _391
REMARK  167  A    between atoms: _396  and  _398
REMARK  168  A    between atoms: _398  and  _399
REMARK  169  A    between atoms: _398  and  _401
REMARK  170  A    between atoms: _401  and  _402
REMARK  171  A    between atoms: _405  and  _407
REMARK  172  A    between atoms: _407  and  _408
REMARK  173  A    between atoms: _407  and  _410
REMARK  174  A    between atoms: _410  and  _411
REMARK  175  A    between atoms: _414  and  _416
REMARK  176  A    between atoms: _416  and  _417
REMARK  177  A    between atoms: _416  and  _419
REMARK  178  A    between atoms: _419  and  _420
REMARK  179  A    between atoms: _426  and  _428
REMARK  180  A    between atoms: _428  and  _429
REMARK  181  A    between atoms: _428  and  _431
REMARK  182  A    between atoms: _434  and  _436
REMARK  183  A    between atoms: _436  and  _437
REMARK  184  A    between atoms: _436  and  _439
REMARK  185  A    between atoms: _439  and  _440
REMARK  186  A    between atoms: _443  and  _445
REMARK  187  A    between atoms: _445  and  _446
REMARK  188  A    between atoms: _449  and  _451
REMARK  189  A    between atoms: _451  and  _452
REMARK  190  A    between atoms: _451  and  _454
REMARK  191  A    between atoms: _454  and  _455
REMARK  192  A    between atoms: _460  and  _462
REMARK  193  A    between atoms: _462  and  _463
REMARK  194  A    between atoms: _462  and  _465
REMARK  195  A    between atoms: _465  and  _466
REMARK  196  A    between atoms: _466  and  _467
REMARK  197  A    between atoms: _467  and  _468
REMARK  198  A    between atoms: _468  and  _469
REMARK  199  A    between atoms: _473  and  _475
REMARK  200  A    between atoms: _475  and  _476
REMARK  201  A    between atoms: _475  and  _478
REMARK  202  A    between atoms: _478  and  _479
REMARK  203  A    between atoms: _482  and  _484
REMARK  204  A    between atoms: _484  and  _485
REMARK  205  A    between atoms: _487  and  _489
REMARK  206  A    between atoms: _489  and  _490
REMARK  207  A    between atoms: _489  and  _492
REMARK  208  A    between atoms: _492  and  _493
REMARK  209  A    between atoms: _498  and  _499
REMARK  210  A    between atoms: _501  and  _503
REMARK  211  A    between atoms: _503  and  _504
REMARK  212  A    between atoms: _503  and  _506
REMARK  213  A    between atoms: _506  and  _507
REMARK  214  A    between atoms: _512  and  _513
REMARK  215  A    between atoms: _515  and  _517
REMARK  216  A    between atoms: _517  and  _518
REMARK  217  A    between atoms: _517  and  _520
REMARK  218  A    between atoms: _520  and  _521
REMARK  219  A    between atoms: _524  and  _526
REMARK  220  A    between atoms: _526  and  _527
REMARK  221  A    between atoms: _526  and  _529
REMARK  222  A    between atoms: _529  and  _530
REMARK  223  A    between atoms: _535  and  _537
REMARK  224  A    between atoms: _537  and  _538
REMARK  225  A    between atoms: _537  and  _540
REMARK  226  A    between atoms: _540  and  _541
REMARK  227  A    between atoms: _541  and  _542
REMARK  228  A    between atoms: _542  and  _543
REMARK  229  A    between atoms: _552  and  _554
REMARK  230  A    between atoms: _554  and  _555
REMARK  231  A    between atoms: _554  and  _557
REMARK  232  A    between atoms: _557  and  _558
REMARK  233  A    between atoms: _563  and  _564
REMARK  234  A    between atoms: _566  and  _568
REMARK  235  A    between atoms: _568  and  _569
REMARK  236  A    between atoms: _568  and  _571
REMARK  237  A    between atoms: _571  and  _572
REMARK                            x       y       z     vdW  Elec       q    Type
REMARK                         _______ _______ _______ _____ _____    ______ ____
ROOT
ATOM      1  O   HOH     1       4.559  -5.427 -18.885  0.00  0.00    +0.000 OA
ENDROOT
TORSDOF 0
REMARK  Name = ../refined-set-2016/4ymg/4ymg_pocket.pdb
REMARK  237 active torsions:
REMARK  status: ('A' for Active; 'I' for Inactive)
REMARK    1  A    between atoms: _1  and  _3
REMARK    2  A    between atoms: _3  and  _4
REMARK    3  A    between atoms: _3  and  _6
REMARK    4  A    between atoms: _6  and  _7
REMARK    5  A    between atoms: _12  and  _14
REMARK    6  A    between atoms: _14  and  _15
REMARK    7  A    between atoms: _14  and  _17
REMARK    8  A    between atoms: _17  and  _18
REMARK    9  A    between atoms: _28  and  _30
REMARK   10  A    between atoms: _30  and  _31
REMARK   11  A    between atoms: _30  and  _33
REMARK   12  A    between atoms: _33  and  _34
REMARK   13  A    between atoms: _37  and  _39
REMARK   14  A    between atoms: _39  and  _40
REMARK   15  A    between atoms: _39  and  _42
REMARK   16  A    between atoms: _42  and  _43
REMARK   17  A    between atoms: _46  and  _48
REMARK   18  A    between atoms: _48  and  _49
REMARK   19  A    between atoms: _52  and  _54
REMARK   20  A    between atoms: _54  and  _55
REMARK   21  A    between atoms: _54  and  _57
REMARK   22  A    between atoms: _57  and  _58
REMARK   23  A    between atoms: _61  and  _63
REMARK   24  A    between atoms: _63  and  _64
REMARK   25  A    between atoms: _63  and  _66
REMARK   26  A    between atoms: _66  and  _67
REMARK   27  A    between atoms: _67  and  _68
REMARK   28  A    between atoms: _68  and  _69
REMARK   29  A    between atoms: _69  and  _70
REMARK   30  A    between atoms: _74  and  _76
REMARK   31  A    between atoms: _76  and  _77
REMARK   32  A    between atoms: _76  and  _79
REMARK   33  A    between atoms: _79  and  _80
REMARK   34  A    between atoms: _80  and  _81
REMARK   35  A    between atoms: _83  and  _85
REMARK   36  A    between atoms: _85  and  _86
REMARK   37  A    between atoms: _85  and  _88
REMARK   38  A    between atoms: _88  and  _89
REMARK   39  A    between atoms: _91  and  _93
REMARK   40  A    between atoms: _93  and  _94
REMARK   41  A    between atoms: _93  and  _96
REMARK   42  A    between atoms: _96  and  _97
REMARK   43  A    between atoms: _99  and  _101
REMARK   44  A    between atoms: _101  and  _102
REMARK   45  A    between atoms: _101  and  _104
REMARK   46  A    between atoms: _104  and  _105
REMARK   47  A    between atoms: _105  and  _106
REMARK   48  A    between atoms: _111  and  _113
REMARK   49  A    between atoms: _113  and  _114
REMARK   50  A    between atoms: _116  and  _118
REMARK   51  A    between atoms: _118  and  _119
REMARK   52  A    between atoms: _118  and  _121
REMARK   53  A    between atoms: _121  and  _122
REMARK   54  A    between atoms: _122  and  _123
REMARK   55  A    between atoms: _125  and  _127
REMARK   56  A    between atoms: _127  and  _128
REMARK   57  A    between atoms: _127  and  _130
REMARK   58  A    between atoms: _130  and  _131
REMARK   59  A    between atoms: _131  and  _132
REMARK   60  A    between atoms: _135  and  _137
REMARK   61  A    between atoms: _137  and  _138
REMARK   62  A    between atoms: _137  and  _140
REMARK   63  A    between atoms: _140  and  _141
REMARK   64  A    between atoms: _144  and  _146
REMARK   65  A    between atoms: _146  and  _147
REMARK   66  A    between atoms: _149  and  _151
REMARK   67  A    between atoms: _151  and  _152
REMARK   68  A    between atoms: _151  and  _154
REMARK   69  A    between atoms: _156  and  _158
REMARK   70  A    between atoms: _158  and  _159
REMARK   71  A    between atoms: _158  and  _161
REMARK   72  A    between atoms: _161  and  _162
REMARK   73  A    between atoms: _167  and  _168
REMARK   74  A    between atoms: _170  and  _172
REMARK   75  A    between atoms: _172  and  _173
REMARK   76  A    between atoms: _172  and  _175
REMARK   77  A    between atoms: _175  and  _176
REMARK   78  A    between atoms: _178  and  _180
REMARK   79  A    between atoms: _180  and  _181
REMARK   80  A    between atoms: _183  and  _185
REMARK   81  A    between atoms: _185  and  _186
REMARK   82  A    between atoms: _185  and  _188
REMARK   83  A    between atoms: _188  and  _189
REMARK   84  A    between atoms: _194  and  _195
REMARK   85  A    between atoms: _197  and  _199
REMARK   86  A    between atoms: _199  and  _200
REMARK   87  A    between atoms: _199  and  _202
REMARK   88  A    between atoms: _202  and  _203
REMARK   89  A    between atoms: _205  and  _207
REMARK   90  A    between atoms: _207  and  _208
REMARK   91  A    between atoms: _211  and  _213
REMARK   92  A    between atoms: _213  and  _214
REMARK   93  A    between atoms: _213  and  _216
REMARK   94  A    between atoms: _216  and  _217
REMARK   95  A    between atoms: _220  and  _222
REMARK   96  A    between atoms: _222  and  _223
REMARK   97  A    between atoms: _226  and  _228
REMARK   98  A    between atoms: _228  and  _229
REMARK   99  A    between atoms: _228  and  _231
REMARK  100  A    between atoms: _231  and  _232
REMARK  101  A    between atoms: _242  and  _244
REMARK  102  A    between atoms: _244  and  _245
REMARK  103  A    between atoms: _244  and  _247
REMARK  104  A    between atoms: _247  and  _248
REMARK  105  A    between atoms: _251  and  _253
REMARK  106  A    between atoms: _253  and  _254
REMARK  107  A    between atoms: _253  and  _256
REMARK  108  A    between atoms: _256  and  _257
REMARK  109  A    between atoms: _260  and  _262
REMARK  110  A    between atoms: _262  and  _263
REMARK  111  A    between atoms: _262  and  _265
REMARK  112  A    between atoms: _265  and  _266
REMARK  113  A    between atoms: _266  and  _267
REMARK  114  A    between atoms: _270  and  _272
REMARK  115  A    between atoms: _272  and  _273
REMARK  116  A    between atoms: _272  and  _275
REMARK  117  A    between atoms: _275  and  _276
REMARK  118  A    between atoms: _281  and  _282
REMARK  119  A    between atoms: _284  and  _286
REMARK  120  A    between atoms: _286  and  _287
REMARK  121  A    between atoms: _286  and  _289
REMARK  122  A    between atoms: _289  and  _290
REMARK  123  A    between atoms: _293  and  _294
REMARK  124  A    between atoms: _299  and  _301
REMARK  125  A    between atoms: _301  and  _302
REMARK  126  A    between atoms: _301  and  _304
REMARK  127  A    between atoms: _304  and  _305
REMARK  128  A    between atoms: _305  and  _306
REMARK  129  A    between atoms: _306  and  _307
REMARK  130  A    between atoms: _307  and  _308
REMARK  131  A    between atoms: _312  and  _314
REMARK  132  A    between atoms: _314  and  _315
REMARK  133  A    between atoms: _314  and  _317
REMARK  134  A    between atoms: _317  and  _318
REMARK  135  A    between atoms: _318  and  _319
REMARK  136  A    between atoms: _321  and  _323
REMARK  137  A    between atoms: _323  and  _324
REMARK  138  A    between atoms: _323  and  _326
REMARK  139  A    between atoms: _326  and  _327
REMARK  140  A    between atoms: _330  and  _332
REMARK  141  A    between atoms: _332  and  _333
REMARK  142  A    between atoms: _332  and  _335
REMARK  143  A    between atoms: _335  and  _336
REMARK  144  A    between atoms: _338  and  _340
REMARK  145  A    between atoms: _340  and  _341
REMARK  146  A    between atoms: _340  and  _343
REMARK  147  A    between atoms: _343  and  _344
REMARK  148  A    between atoms: _347  and  _349
REMARK  149  A    between atoms: _349  and  _350
REMARK  150  A    between atoms: _349  and  _352
REMARK  151  A    between atoms: _352  and  _353
REMARK  152  A    between atoms: _353  and  _354
REMARK  153  A    between atoms: _357  and  _359
REMARK  154  A    between atoms: _359  and  _360
REMARK  155  A    between atoms: _363  and  _364
REMARK  156  A    between atoms: _369  and  _371
REMARK  157  A    between atoms: _371  and  _372
REMARK  158  A    between atoms: _375  and  _377
REMARK  159  A    between atoms: _377  and  _378
REMARK  160  A    between atoms: _377  and  _380
REMARK  161  A    between atoms: _380  and  _381
REMARK  162  A    between atoms: _381  and  _382
REMARK  163  A    between atoms: _385  and  _387
REMARK  164  A    between atoms: _387  and  _388
REMARK  165  A    between atoms: _387  and  _390
REMARK  166  A    between atoms: _390  and  _391
REMARK  167  A    between atoms: _396  and  _398
REMARK  168  A    between atoms: _398  and  _399
REMARK  169  A    between atoms: _398  and  _401
REMARK  170  A    between atoms: _401  and  _402
REMARK  171  A    between atoms: _405  and  _407
REMARK  172  A    between atoms: _407  and  _408
REMARK  173  A    between atoms: _407  and  _410
REMARK  174  A    between atoms: _410  and  _411
REMARK  175  A    between atoms: _414  and  _416
REMARK  176  A    between atoms: _416  and  _417
REMARK  177  A    between atoms: _416  and  _419
REMARK  178  A    between atoms: _419  and  _420
REMARK  179  A    between atoms: _426  and  _428
REMARK  180  A    between atoms: _428  and  _429
REMARK  181  A    between atoms: _428  and  _431
REMARK  182  A    between atoms: _434  and  _436
REMARK  183  A    between atoms: _436  and  _437
REMARK  184  A    between atoms: _436  and  _439
REMARK  185  A    between atoms: _439  and  _440
REMARK  186  A    between atoms: _443  and  _445
REMARK  187  A    between atoms: _445  and  _446
REMARK  188  A    between atoms: _449  and  _451
REMARK  189  A    between atoms: _451  and  _452
REMARK  190  A    between atoms: _451  and  _454
REMARK  191  A    between atoms: _454  and  _455
REMARK  192  A    between atoms: _460  and  _462
REMARK  193  A    between atoms: _462  and  _463
REMARK  194  A    between atoms: _462  and  _465
REMARK  195  A    between atoms: _465  and  _466
REMARK  196  A    between atoms: _466  and  _467
REMARK  197  A    between atoms: _467  and  _468
REMARK  198  A    between atoms: _468  and  _469
REMARK  199  A    between atoms: _473  and  _475
REMARK  200  A    between atoms: _475  and  _476
REMARK  201  A    between atoms: _475  and  _478
REMARK  202  A    between atoms: _478  and  _479
REMARK  203  A    between atoms: _482  and  _484
REMARK  204  A    between atoms: _484  and  _485
REMARK  205  A    between atoms: _487  and  _489
REMARK  206  A    between atoms: _489  and  _490
REMARK  207  A    between atoms: _489  and  _492
REMARK  208  A    between atoms: _492  and  _493
REMARK  209  A    between atoms: _498  and  _499
REMARK  210  A    between atoms: _501  and  _503
REMARK  211  A    between atoms: _503  and  _504
REMARK  212  A    between atoms: _503  and  _506
REMARK  213  A    between atoms: _506  and  _507
REMARK  214  A    between atoms: _512  and  _513
REMARK  215  A    between atoms: _515  and  _517
REMARK  216  A    between atoms: _517  and  _518
REMARK  217  A    between atoms: _517  and  _520
REMARK  218  A    between atoms: _520  and  _521
REMARK  219  A    between atoms: _524  and  _526
REMARK  220  A    between atoms: _526  and  _527
REMARK  221  A    between atoms: _526  and  _529
REMARK  222  A    between atoms: _529  and  _530
REMARK  223  A    between atoms: _535  and  _537
REMARK  224  A    between atoms: _537  and  _538
REMARK  225  A    between atoms: _537  and  _540
REMARK  226  A    between atoms: _540  and  _541
REMARK  227  A    between atoms: _541  and  _542
REMARK  228  A    between atoms: _542  and  _543
REMARK  229  A    between atoms: _552  and  _554
REMARK  230  A    between atoms: _554  and  _555
REMARK  231  A    between atoms: _554  and  _557
REMARK  232  A    between atoms: _557  and  _558
REMARK  233  A    between atoms: _563  and  _564
REMARK  234  A    between atoms: _566  and  _568
REMARK  235  A    between atoms: _568  and  _569
REMARK  236  A    between atoms: _568  and  _571
REMARK  237  A    between atoms: _571  and  _572
REMARK                            x       y       z     vdW  Elec       q    Type
REMARK                         _______ _______ _______ _____ _____    ______ ____
ROOT
ATOM      1  O   HOH     1      -5.720   7.499  -8.963  0.00  0.00    +0.000 OA
ENDROOT
TORSDOF 0
REMARK  Name = ../refined-set-2016/4ymg/4ymg_pocket.pdb
REMARK  237 active torsions:
REMARK  status: ('A' for Active; 'I' for Inactive)
REMARK    1  A    between atoms: _1  and  _3
REMARK    2  A    between atoms: _3  and  _4
REMARK    3  A    between atoms: _3  and  _6
REMARK    4  A    between atoms: _6  and  _7
REMARK    5  A    between atoms: _12  and  _14
REMARK    6  A    between atoms: _14  and  _15
REMARK    7  A    between atoms: _14  and  _17
REMARK    8  A    between atoms: _17  and  _18
REMARK    9  A    between atoms: _28  and  _30
REMARK   10  A    between atoms: _30  and  _31
REMARK   11  A    between atoms: _30  and  _33
REMARK   12  A    between atoms: _33  and  _34
REMARK   13  A    between atoms: _37  and  _39
REMARK   14  A    between atoms: _39  and  _40
REMARK   15  A    between atoms: _39  and  _42
REMARK   16  A    between atoms: _42  and  _43
REMARK   17  A    between atoms: _46  and  _48
REMARK   18  A    between atoms: _48  and  _49
REMARK   19  A    between atoms: _52  and  _54
REMARK   20  A    between atoms: _54  and  _55
REMARK   21  A    between atoms: _54  and  _57
REMARK   22  A    between atoms: _57  and  _58
REMARK   23  A    between atoms: _61  and  _63
REMARK   24  A    between atoms: _63  and  _64
REMARK   25  A    between atoms: _63  and  _66
REMARK   26  A    between atoms: _66  and  _67
REMARK   27  A    between atoms: _67  and  _68
REMARK   28  A    between atoms: _68  and  _69
REMARK   29  A    between atoms: _69  and  _70
REMARK   30  A    between atoms: _74  and  _76
REMARK   31  A    between atoms: _76  and  _77
REMARK   32  A    between atoms: _76  and  _79
REMARK   33  A    between atoms: _79  and  _80
REMARK   34  A    between atoms: _80  and  _81
REMARK   35  A    between atoms: _83  and  _85
REMARK   36  A    between atoms: _85  and  _86
REMARK   37  A    between atoms: _85  and  _88
REMARK   38  A    between atoms: _88  and  _89
REMARK   39  A    between atoms: _91  and  _93
REMARK   40  A    between atoms: _93  and  _94
REMARK   41  A    between atoms: _93  and  _96
REMARK   42  A    between atoms: _96  and  _97
REMARK   43  A    between atoms: _99  and  _101
REMARK   44  A    between atoms: _101  and  _102
REMARK   45  A    between atoms: _101  and  _104
REMARK   46  A    between atoms: _104  and  _105
REMARK   47  A    between atoms: _105  and  _106
REMARK   48  A    between atoms: _111  and  _113
REMARK   49  A    between atoms: _113  and  _114
REMARK   50  A    between atoms: _116  and  _118
REMARK   51  A    between atoms: _118  and  _119
REMARK   52  A    between atoms: _118  and  _121
REMARK   53  A    between atoms: _121  and  _122
REMARK   54  A    between atoms: _122  and  _123
REMARK   55  A    between atoms: _125  and  _127
REMARK   56  A    between atoms: _127  and  _128
REMARK   57  A    between atoms: _127  and  _130
REMARK   58  A    between atoms: _130  and  _131
REMARK   59  A    between atoms: _131  and  _132
REMARK   60  A    between atoms: _135  and  _137
REMARK   61  A    between atoms: _137  and  _138
REMARK   62  A    between atoms: _137  and  _140
REMARK   63  A    between atoms: _140  and  _141
REMARK   64  A    between atoms: _144  and  _146
REMARK   65  A    between atoms: _146  and  _147
REMARK   66  A    between atoms: _149  and  _151
REMARK   67  A    between atoms: _151  and  _152
REMARK   68  A    between atoms: _151  and  _154
REMARK   69  A    between atoms: _156  and  _158
REMARK   70  A    between atoms: _158  and  _159
REMARK   71  A    between atoms: _158  and  _161
REMARK   72  A    between atoms: _161  and  _162
REMARK   73  A    between atoms: _167  and  _168
REMARK   74  A    between atoms: _170  and  _172
REMARK   75  A    between atoms: _172  and  _173
REMARK   76  A    between atoms: _172  and  _175
REMARK   77  A    between atoms: _175  and  _176
REMARK   78  A    between atoms: _178  and  _180
REMARK   79  A    between atoms: _180  and  _181
REMARK   80  A    between atoms: _183  and  _185
REMARK   81  A    between atoms: _185  and  _186
REMARK   82  A    between atoms: _185  and  _188
REMARK   83  A    between atoms: _188  and  _189
REMARK   84  A    between atoms: _194  and  _195
REMARK   85  A    between atoms: _197  and  _199
REMARK   86  A    between atoms: _199  and  _200
REMARK   87  A    between atoms: _199  and  _202
REMARK   88  A    between atoms: _202  and  _203
REMARK   89  A    between atoms: _205  and  _207
REMARK   90  A    between atoms: _207  and  _208
REMARK   91  A    between atoms: _211  and  _213
REMARK   92  A    between atoms: _213  and  _214
REMARK   93  A    between atoms: _213  and  _216
REMARK   94  A    between atoms: _216  and  _217
REMARK   95  A    between atoms: _220  and  _222
REMARK   96  A    between atoms: _222  and  _223
REMARK   97  A    between atoms: _226  and  _228
REMARK   98  A    between atoms: _228  and  _229
REMARK   99  A    between atoms: _228  and  _231
REMARK  100  A    between atoms: _231  and  _232
REMARK  101  A    between atoms: _242  and  _244
REMARK  102  A    between atoms: _244  and  _245
REMARK  103  A    between atoms: _244  and  _247
REMARK  104  A    between atoms: _247  and  _248
REMARK  105  A    between atoms: _251  and  _253
REMARK  106  A    between atoms: _253  and  _254
REMARK  107  A    between atoms: _253  and  _256
REMARK  108  A    between atoms: _256  and  _257
REMARK  109  A    between atoms: _260  and  _262
REMARK  110  A    between atoms: _262  and  _263
REMARK  111  A    between atoms: _262  and  _265
REMARK  112  A    between atoms: _265  and  _266
REMARK  113  A    between atoms: _266  and  _267
REMARK  114  A    between atoms: _270  and  _272
REMARK  115  A    between atoms: _272  and  _273
REMARK  116  A    between atoms: _272  and  _275
REMARK  117  A    between atoms: _275  and  _276
REMARK  118  A    between atoms: _281  and  _282
REMARK  119  A    between atoms: _284  and  _286
REMARK  120  A    between atoms: _286  and  _287
REMARK  121  A    between atoms: _286  and  _289
REMARK  122  A    between atoms: _289  and  _290
REMARK  123  A    between atoms: _293  and  _294
REMARK  124  A    between atoms: _299  and  _301
REMARK  125  A    between atoms: _301  and  _302
REMARK  126  A    between atoms: _301  and  _304
REMARK  127  A    between atoms: _304  and  _305
REMARK  128  A    between atoms: _305  and  _306
REMARK  129  A    between atoms: _306  and  _307
REMARK  130  A    between atoms: _307  and  _308
REMARK  131  A    between atoms: _312  and  _314
REMARK  132  A    between atoms: _314  and  _315
REMARK  133  A    between atoms: _314  and  _317
REMARK  134  A    between atoms: _317  and  _318
REMARK  135  A    between atoms: _318  and  _319
REMARK  136  A    between atoms: _321  and  _323
REMARK  137  A    between atoms: _323  and  _324
REMARK  138  A    between atoms: _323  and  _326
REMARK  139  A    between atoms: _326  and  _327
REMARK  140  A    between atoms: _330  and  _332
REMARK  141  A    between atoms: _332  and  _333
REMARK  142  A    between atoms: _332  and  _335
REMARK  143  A    between atoms: _335  and  _336
REMARK  144  A    between atoms: _338  and  _340
REMARK  145  A    between atoms: _340  and  _341
REMARK  146  A    between atoms: _340  and  _343
REMARK  147  A    between atoms: _343  and  _344
REMARK  148  A    between atoms: _347  and  _349
REMARK  149  A    between atoms: _349  and  _350
REMARK  150  A    between atoms: _349  and  _352
REMARK  151  A    between atoms: _352  and  _353
REMARK  152  A    between atoms: _353  and  _354
REMARK  153  A    between atoms: _357  and  _359
REMARK  154  A    between atoms: _359  and  _360
REMARK  155  A    between atoms: _363  and  _364
REMARK  156  A    between atoms: _369  and  _371
REMARK  157  A    between atoms: _371  and  _372
REMARK  158  A    between atoms: _375  and  _377
REMARK  159  A    between atoms: _377  and  _378
REMARK  160  A    between atoms: _377  and  _380
REMARK  161  A    between atoms: _380  and  _381
REMARK  162  A    between atoms: _381  and  _382
REMARK  163  A    between atoms: _385  and  _387
REMARK  164  A    between atoms: _387  and  _388
REMARK  165  A    between atoms: _387  and  _390
REMARK  166  A    between atoms: _390  and  _391
REMARK  167  A    between atoms: _396  and  _398
REMARK  168  A    between atoms: _398  and  _399
REMARK  169  A    between atoms: _398  and  _401
REMARK  170  A    between atoms: _401  and  _402
REMARK  171  A    between atoms: _405  and  _407
REMARK  172  A    between atoms: _407  and  _408
REMARK  173  A    between atoms: _407  and  _410
REMARK  174  A    between atoms: _410  and  _411
REMARK  175  A    between atoms: _414  and  _416
REMARK  176  A    between atoms: _416  and  _417
REMARK  177  A    between atoms: _416  and  _419
REMARK  178  A    between atoms: _419  and  _420
REMARK  179  A    between atoms: _426  and  _428
REMARK  180  A    between atoms: _428  and  _429
REMARK  181  A    between atoms: _428  and  _431
REMARK  182  A    between atoms: _434  and  _436
REMARK  183  A    between atoms: _436  and  _437
REMARK  184  A    between atoms: _436  and  _439
REMARK  185  A    between atoms: _439  and  _440
REMARK  186  A    between atoms: _443  and  _445
REMARK  187  A    between atoms: _445  and  _446
REMARK  188  A    between atoms: _449  and  _451
REMARK  189  A    between atoms: _451  and  _452
REMARK  190  A    between atoms: _451  and  _454
REMARK  191  A    between atoms: _454  and  _455
REMARK  192  A    between atoms: _460  and  _462
REMARK  193  A    between atoms: _462  and  _463
REMARK  194  A    between atoms: _462  and  _465
REMARK  195  A    between atoms: _465  and  _466
REMARK  196  A    between atoms: _466  and  _467
REMARK  197  A    between atoms: _467  and  _468
REMARK  198  A    between atoms: _468  and  _469
REMARK  199  A    between atoms: _473  and  _475
REMARK  200  A    between atoms: _475  and  _476
REMARK  201  A    between atoms: _475  and  _478
REMARK  202  A    between atoms: _478  and  _479
REMARK  203  A    between atoms: _482  and  _484
REMARK  204  A    between atoms: _484  and  _485
REMARK  205  A    between atoms: _487  and  _489
REMARK  206  A    between atoms: _489  and  _490
REMARK  207  A    between atoms: _489  and  _492
REMARK  208  A    between atoms: _492  and  _493
REMARK  209  A    between atoms: _498  and  _499
REMARK  210  A    between atoms: _501  and  _503
REMARK  211  A    between atoms: _503  and  _504
REMARK  212  A    between atoms: _503  and  _506
REMARK  213  A    between atoms: _506  and  _507
REMARK  214  A    between atoms: _512  and  _513
REMARK  215  A    between atoms: _515  and  _517
REMARK  216  A    between atoms: _517  and  _518
REMARK  217  A    between atoms: _517  and  _520
REMARK  218  A    between atoms: _520  and  _521
REMARK  219  A    between atoms: _524  and  _526
REMARK  220  A    between atoms: _526  and  _527
REMARK  221  A    between atoms: _526  and  _529
REMARK  222  A    between atoms: _529  and  _530
REMARK  223  A    between atoms: _535  and  _537
REMARK  224  A    between atoms: _537  and  _538
REMARK  225  A    between atoms: _537  and  _540
REMARK  226  A    between atoms: _540  and  _541
REMARK  227  A    between atoms: _541  and  _542
REMARK  228  A    between atoms: _542  and  _543
REMARK  229  A    between atoms: _552  and  _554
REMARK  230  A    between atoms: _554  and  _555
REMARK  231  A    between atoms: _554  and  _557
REMARK  232  A    between atoms: _557  and  _558
REMARK  233  A    between atoms: _563  and  _564
REMARK  234  A    between atoms: _566  and  _568
REMARK  235  A    between atoms: _568  and  _569
REMARK  236  A    between atoms: _568  and  _571
REMARK  237  A    between atoms: _571  and  _572
REMARK                            x       y       z     vdW  Elec       q    Type
REMARK                         _______ _______ _______ _____ _____    ______ ____
ROOT
ATOM      1  O   HOH     1       7.158  -5.227 -19.735  0.00  0.00    +0.000 OA
ENDROOT
TORSDOF 0
REMARK  Name = ../refined-set-2016/4ymg/4ymg_pocket.pdb
REMARK  237 active torsions:
REMARK  status: ('A' for Active; 'I' for Inactive)
REMARK    1  A    between atoms: _1  and  _3
REMARK    2  A    between atoms: _3  and  _4
REMARK    3  A    between atoms: _3  and  _6
REMARK    4  A    between atoms: _6  and  _7
REMARK    5  A    between atoms: _12  and  _14
REMARK    6  A    between atoms: _14  and  _15
REMARK    7  A    between atoms: _14  and  _17
REMARK    8  A    between atoms: _17  and  _18
REMARK    9  A    between atoms: _28  and  _30
REMARK   10  A    between atoms: _30  and  _31
REMARK   11  A    between atoms: _30  and  _33
REMARK   12  A    between atoms: _33  and  _34
REMARK   13  A    between atoms: _37  and  _39
REMARK   14  A    between atoms: _39  and  _40
REMARK   15  A    between atoms: _39  and  _42
REMARK   16  A    between atoms: _42  and  _43
REMARK   17  A    between atoms: _46  and  _48
REMARK   18  A    between atoms: _48  and  _49
REMARK   19  A    between atoms: _52  and  _54
REMARK   20  A    between atoms: _54  and  _55
REMARK   21  A    between atoms: _54  and  _57
REMARK   22  A    between atoms: _57  and  _58
REMARK   23  A    between atoms: _61  and  _63
REMARK   24  A    between atoms: _63  and  _64
REMARK   25  A    between atoms: _63  and  _66
REMARK   26  A    between atoms: _66  and  _67
REMARK   27  A    between atoms: _67  and  _68
REMARK   28  A    between atoms: _68  and  _69
REMARK   29  A    between atoms: _69  and  _70
REMARK   30  A    between atoms: _74  and  _76
REMARK   31  A    between atoms: _76  and  _77
REMARK   32  A    between atoms: _76  and  _79
REMARK   33  A    between atoms: _79  and  _80
REMARK   34  A    between atoms: _80  and  _81
REMARK   35  A    between atoms: _83  and  _85
REMARK   36  A    between atoms: _85  and  _86
REMARK   37  A    between atoms: _85  and  _88
REMARK   38  A    between atoms: _88  and  _89
REMARK   39  A    between atoms: _91  and  _93
REMARK   40  A    between atoms: _93  and  _94
REMARK   41  A    between atoms: _93  and  _96
REMARK   42  A    between atoms: _96  and  _97
REMARK   43  A    between atoms: _99  and  _101
REMARK   44  A    between atoms: _101  and  _102
REMARK   45  A    between atoms: _101  and  _104
REMARK   46  A    between atoms: _104  and  _105
REMARK   47  A    between atoms: _105  and  _106
REMARK   48  A    between atoms: _111  and  _113
REMARK   49  A    between atoms: _113  and  _114
REMARK   50  A    between atoms: _116  and  _118
REMARK   51  A    between atoms: _118  and  _119
REMARK   52  A    between atoms: _118  and  _121
REMARK   53  A    between atoms: _121  and  _122
REMARK   54  A    between atoms: _122  and  _123
REMARK   55  A    between atoms: _125  and  _127
REMARK   56  A    between atoms: _127  and  _128
REMARK   57  A    between atoms: _127  and  _130
REMARK   58  A    between atoms: _130  and  _131
REMARK   59  A    between atoms: _131  and  _132
REMARK   60  A    between atoms: _135  and  _137
REMARK   61  A    between atoms: _137  and  _138
REMARK   62  A    between atoms: _137  and  _140
REMARK   63  A    between atoms: _140  and  _141
REMARK   64  A    between atoms: _144  and  _146
REMARK   65  A    between atoms: _146  and  _147
REMARK   66  A    between atoms: _149  and  _151
REMARK   67  A    between atoms: _151  and  _152
REMARK   68  A    between atoms: _151  and  _154
REMARK   69  A    between atoms: _156  and  _158
REMARK   70  A    between atoms: _158  and  _159
REMARK   71  A    between atoms: _158  and  _161
REMARK   72  A    between atoms: _161  and  _162
REMARK   73  A    between atoms: _167  and  _168
REMARK   74  A    between atoms: _170  and  _172
REMARK   75  A    between atoms: _172  and  _173
REMARK   76  A    between atoms: _172  and  _175
REMARK   77  A    between atoms: _175  and  _176
REMARK   78  A    between atoms: _178  and  _180
REMARK   79  A    between atoms: _180  and  _181
REMARK   80  A    between atoms: _183  and  _185
REMARK   81  A    between atoms: _185  and  _186
REMARK   82  A    between atoms: _185  and  _188
REMARK   83  A    between atoms: _188  and  _189
REMARK   84  A    between atoms: _194  and  _195
REMARK   85  A    between atoms: _197  and  _199
REMARK   86  A    between atoms: _199  and  _200
REMARK   87  A    between atoms: _199  and  _202
REMARK   88  A    between atoms: _202  and  _203
REMARK   89  A    between atoms: _205  and  _207
REMARK   90  A    between atoms: _207  and  _208
REMARK   91  A    between atoms: _211  and  _213
REMARK   92  A    between atoms: _213  and  _214
REMARK   93  A    between atoms: _213  and  _216
REMARK   94  A    between atoms: _216  and  _217
REMARK   95  A    between atoms: _220  and  _222
REMARK   96  A    between atoms: _222  and  _223
REMARK   97  A    between atoms: _226  and  _228
REMARK   98  A    between atoms: _228  and  _229
REMARK   99  A    between atoms: _228  and  _231
REMARK  100  A    between atoms: _231  and  _232
REMARK  101  A    between atoms: _242  and  _244
REMARK  102  A    between atoms: _244  and  _245
REMARK  103  A    between atoms: _244  and  _247
REMARK  104  A    between atoms: _247  and  _248
REMARK  105  A    between atoms: _251  and  _253
REMARK  106  A    between atoms: _253  and  _254
REMARK  107  A    between atoms: _253  and  _256
REMARK  108  A    between atoms: _256  and  _257
REMARK  109  A    between atoms: _260  and  _262
REMARK  110  A    between atoms: _262  and  _263
REMARK  111  A    between atoms: _262  and  _265
REMARK  112  A    between atoms: _265  and  _266
REMARK  113  A    between atoms: _266  and  _267
REMARK  114  A    between atoms: _270  and  _272
REMARK  115  A    between atoms: _272  and  _273
REMARK  116  A    between atoms: _272  and  _275
REMARK  117  A    between atoms: _275  and  _276
REMARK  118  A    between atoms: _281  and  _282
REMARK  119  A    between atoms: _284  and  _286
REMARK  120  A    between atoms: _286  and  _287
REMARK  121  A    between atoms: _286  and  _289
REMARK  122  A    between atoms: _289  and  _290
REMARK  123  A    between atoms: _293  and  _294
REMARK  124  A    between atoms: _299  and  _301
REMARK  125  A    between atoms: _301  and  _302
REMARK  126  A    between atoms: _301  and  _304
REMARK  127  A    between atoms: _304  and  _305
REMARK  128  A    between atoms: _305  and  _306
REMARK  129  A    between atoms: _306  and  _307
REMARK  130  A    between atoms: _307  and  _308
REMARK  131  A    between atoms: _312  and  _314
REMARK  132  A    between atoms: _314  and  _315
REMARK  133  A    between atoms: _314  and  _317
REMARK  134  A    between atoms: _317  and  _318
REMARK  135  A    between atoms: _318  and  _319
REMARK  136  A    between atoms: _321  and  _323
REMARK  137  A    between atoms: _323  and  _324
REMARK  138  A    between atoms: _323  and  _326
REMARK  139  A    between atoms: _326  and  _327
REMARK  140  A    between atoms: _330  and  _332
REMARK  141  A    between atoms: _332  and  _333
REMARK  142  A    between atoms: _332  and  _335
REMARK  143  A    between atoms: _335  and  _336
REMARK  144  A    between atoms: _338  and  _340
REMARK  145  A    between atoms: _340  and  _341
REMARK  146  A    between atoms: _340  and  _343
REMARK  147  A    between atoms: _343  and  _344
REMARK  148  A    between atoms: _347  and  _349
REMARK  149  A    between atoms: _349  and  _350
REMARK  150  A    between atoms: _349  and  _352
REMARK  151  A    between atoms: _352  and  _353
REMARK  152  A    between atoms: _353  and  _354
REMARK  153  A    between atoms: _357  and  _359
REMARK  154  A    between atoms: _359  and  _360
REMARK  155  A    between atoms: _363  and  _364
REMARK  156  A    between atoms: _369  and  _371
REMARK  157  A    between atoms: _371  and  _372
REMARK  158  A    between atoms: _375  and  _377
REMARK  159  A    between atoms: _377  and  _378
REMARK  160  A    between atoms: _377  and  _380
REMARK  161  A    between atoms: _380  and  _381
REMARK  162  A    between atoms: _381  and  _382
REMARK  163  A    between atoms: _385  and  _387
REMARK  164  A    between atoms: _387  and  _388
REMARK  165  A    between atoms: _387  and  _390
REMARK  166  A    between atoms: _390  and  _391
REMARK  167  A    between atoms: _396  and  _398
REMARK  168  A    between atoms: _398  and  _399
REMARK  169  A    between atoms: _398  and  _401
REMARK  170  A    between atoms: _401  and  _402
REMARK  171  A    between atoms: _405  and  _407
REMARK  172  A    between atoms: _407  and  _408
REMARK  173  A    between atoms: _407  and  _410
REMARK  174  A    between atoms: _410  and  _411
REMARK  175  A    between atoms: _414  and  _416
REMARK  176  A    between atoms: _416  and  _417
REMARK  177  A    between atoms: _416  and  _419
REMARK  178  A    between atoms: _419  and  _420
REMARK  179  A    between atoms: _426  and  _428
REMARK  180  A    between atoms: _428  and  _429
REMARK  181  A    between atoms: _428  and  _431
REMARK  182  A    between atoms: _434  and  _436
REMARK  183  A    between atoms: _436  and  _437
REMARK  184  A    between atoms: _436  and  _439
REMARK  185  A    between atoms: _439  and  _440
REMARK  186  A    between atoms: _443  and  _445
REMARK  187  A    between atoms: _445  and  _446
REMARK  188  A    between atoms: _449  and  _451
REMARK  189  A    between atoms: _451  and  _452
REMARK  190  A    between atoms: _451  and  _454
REMARK  191  A    between atoms: _454  and  _455
REMARK  192  A    between atoms: _460  and  _462
REMARK  193  A    between atoms: _462  and  _463
REMARK  194  A    between atoms: _462  and  _465
REMARK  195  A    between atoms: _465  and  _466
REMARK  196  A    between atoms: _466  and  _467
REMARK  197  A    between atoms: _467  and  _468
REMARK  198  A    between atoms: _468  and  _469
REMARK  199  A    between atoms: _473  and  _475
REMARK  200  A    between atoms: _475  and  _476
REMARK  201  A    between atoms: _475  and  _478
REMARK  202  A    between atoms: _478  and  _479
REMARK  203  A    between atoms: _482  and  _484
REMARK  204  A    between atoms: _484  and  _485
REMARK  205  A    between atoms: _487  and  _489
REMARK  206  A    between atoms: _489  and  _490
REMARK  207  A    between atoms: _489  and  _492
REMARK  208  A    between atoms: _492  and  _493
REMARK  209  A    between atoms: _498  and  _499
REMARK  210  A    between atoms: _501  and  _503
REMARK  211  A    between atoms: _503  and  _504
REMARK  212  A    between atoms: _503  and  _506
REMARK  213  A    between atoms: _506  and  _507
REMARK  214  A    between atoms: _512  and  _513
REMARK  215  A    between atoms: _515  and  _517
REMARK  216  A    between atoms: _517  and  _518
REMARK  217  A    between atoms: _517  and  _520
REMARK  218  A    between atoms: _520  and  _521
REMARK  219  A    between atoms: _524  and  _526
REMARK  220  A    between atoms: _526  and  _527
REMARK  221  A    between atoms: _526  and  _529
REMARK  222  A    between atoms: _529  and  _530
REMARK  223  A    between atoms: _535  and  _537
REMARK  224  A    between atoms: _537  and  _538
REMARK  225  A    between atoms: _537  and  _540
REMARK  226  A    between atoms: _540  and  _541
REMARK  227  A    between atoms: _541  and  _542
REMARK  228  A    between atoms: _542  and  _543
REMARK  229  A    between atoms: _552  and  _554
REMARK  230  A    between atoms: _554  and  _555
REMARK  231  A    between atoms: _554  and  _557
REMARK  232  A    between atoms: _557  and  _558
REMARK  233  A    between atoms: _563  and  _564
REMARK  234  A    between atoms: _566  and  _568
REMARK  235  A    between atoms: _568  and  _569
REMARK  236  A    between atoms: _568  and  _571
REMARK  237  A    between atoms: _571  and  _572
REMARK                            x       y       z     vdW  Elec       q    Type
REMARK                         _______ _______ _______ _____ _____    ______ ____
ROOT
ATOM      1  O   HOH     1       2.813  -4.770 -21.398  0.00  0.00    +0.000 OA
ENDROOT
TORSDOF 0
REMARK  Name = ../refined-set-2016/4ymg/4ymg_pocket.pdb
REMARK  237 active torsions:
REMARK  status: ('A' for Active; 'I' for Inactive)
REMARK    1  A    between atoms: _1  and  _3
REMARK    2  A    between atoms: _3  and  _4
REMARK    3  A    between atoms: _3  and  _6
REMARK    4  A    between atoms: _6  and  _7
REMARK    5  A    between atoms: _12  and  _14
REMARK    6  A    between atoms: _14  and  _15
REMARK    7  A    between atoms: _14  and  _17
REMARK    8  A    between atoms: _17  and  _18
REMARK    9  A    between atoms: _28  and  _30
REMARK   10  A    between atoms: _30  and  _31
REMARK   11  A    between atoms: _30  and  _33
REMARK   12  A    between atoms: _33  and  _34
REMARK   13  A    between atoms: _37  and  _39
REMARK   14  A    between atoms: _39  and  _40
REMARK   15  A    between atoms: _39  and  _42
REMARK   16  A    between atoms: _42  and  _43
REMARK   17  A    between atoms: _46  and  _48
REMARK   18  A    between atoms: _48  and  _49
REMARK   19  A    between atoms: _52  and  _54
REMARK   20  A    between atoms: _54  and  _55
REMARK   21  A    between atoms: _54  and  _57
REMARK   22  A    between atoms: _57  and  _58
REMARK   23  A    between atoms: _61  and  _63
REMARK   24  A    between atoms: _63  and  _64
REMARK   25  A    between atoms: _63  and  _66
REMARK   26  A    between atoms: _66  and  _67
REMARK   27  A    between atoms: _67  and  _68
REMARK   28  A    between atoms: _68  and  _69
REMARK   29  A    between atoms: _69  and  _70
REMARK   30  A    between atoms: _74  and  _76
REMARK   31  A    between atoms: _76  and  _77
REMARK   32  A    between atoms: _76  and  _79
REMARK   33  A    between atoms: _79  and  _80
REMARK   34  A    between atoms: _80  and  _81
REMARK   35  A    between atoms: _83  and  _85
REMARK   36  A    between atoms: _85  and  _86
REMARK   37  A    between atoms: _85  and  _88
REMARK   38  A    between atoms: _88  and  _89
REMARK   39  A    between atoms: _91  and  _93
REMARK   40  A    between atoms: _93  and  _94
REMARK   41  A    between atoms: _93  and  _96
REMARK   42  A    between atoms: _96  and  _97
REMARK   43  A    between atoms: _99  and  _101
REMARK   44  A    between atoms: _101  and  _102
REMARK   45  A    between atoms: _101  and  _104
REMARK   46  A    between atoms: _104  and  _105
REMARK   47  A    between atoms: _105  and  _106
REMARK   48  A    between atoms: _111  and  _113
REMARK   49  A    between atoms: _113  and  _114
REMARK   50  A    between atoms: _116  and  _118
REMARK   51  A    between atoms: _118  and  _119
REMARK   52  A    between atoms: _118  and  _121
REMARK   53  A    between atoms: _121  and  _122
REMARK   54  A    between atoms: _122  and  _123
REMARK   55  A    between atoms: _125  and  _127
REMARK   56  A    between atoms: _127  and  _128
REMARK   57  A    between atoms: _127  and  _130
REMARK   58  A    between atoms: _130  and  _131
REMARK   59  A    between atoms: _131  and  _132
REMARK   60  A    between atoms: _135  and  _137
REMARK   61  A    between atoms: _137  and  _138
REMARK   62  A    between atoms: _137  and  _140
REMARK   63  A    between atoms: _140  and  _141
REMARK   64  A    between atoms: _144  and  _146
REMARK   65  A    between atoms: _146  and  _147
REMARK   66  A    between atoms: _149  and  _151
REMARK   67  A    between atoms: _151  and  _152
REMARK   68  A    between atoms: _151  and  _154
REMARK   69  A    between atoms: _156  and  _158
REMARK   70  A    between atoms: _158  and  _159
REMARK   71  A    between atoms: _158  and  _161
REMARK   72  A    between atoms: _161  and  _162
REMARK   73  A    between atoms: _167  and  _168
REMARK   74  A    between atoms: _170  and  _172
REMARK   75  A    between atoms: _172  and  _173
REMARK   76  A    between atoms: _172  and  _175
REMARK   77  A    between atoms: _175  and  _176
REMARK   78  A    between atoms: _178  and  _180
REMARK   79  A    between atoms: _180  and  _181
REMARK   80  A    between atoms: _183  and  _185
REMARK   81  A    between atoms: _185  and  _186
REMARK   82  A    between atoms: _185  and  _188
REMARK   83  A    between atoms: _188  and  _189
REMARK   84  A    between atoms: _194  and  _195
REMARK   85  A    between atoms: _197  and  _199
REMARK   86  A    between atoms: _199  and  _200
REMARK   87  A    between atoms: _199  and  _202
REMARK   88  A    between atoms: _202  and  _203
REMARK   89  A    between atoms: _205  and  _207
REMARK   90  A    between atoms: _207  and  _208
REMARK   91  A    between atoms: _211  and  _213
REMARK   92  A    between atoms: _213  and  _214
REMARK   93  A    between atoms: _213  and  _216
REMARK   94  A    between atoms: _216  and  _217
REMARK   95  A    between atoms: _220  and  _222
REMARK   96  A    between atoms: _222  and  _223
REMARK   97  A    between atoms: _226  and  _228
REMARK   98  A    between atoms: _228  and  _229
REMARK   99  A    between atoms: _228  and  _231
REMARK  100  A    between atoms: _231  and  _232
REMARK  101  A    between atoms: _242  and  _244
REMARK  102  A    between atoms: _244  and  _245
REMARK  103  A    between atoms: _244  and  _247
REMARK  104  A    between atoms: _247  and  _248
REMARK  105  A    between atoms: _251  and  _253
REMARK  106  A    between atoms: _253  and  _254
REMARK  107  A    between atoms: _253  and  _256
REMARK  108  A    between atoms: _256  and  _257
REMARK  109  A    between atoms: _260  and  _262
REMARK  110  A    between atoms: _262  and  _263
REMARK  111  A    between atoms: _262  and  _265
REMARK  112  A    between atoms: _265  and  _266
REMARK  113  A    between atoms: _266  and  _267
REMARK  114  A    between atoms: _270  and  _272
REMARK  115  A    between atoms: _272  and  _273
REMARK  116  A    between atoms: _272  and  _275
REMARK  117  A    between atoms: _275  and  _276
REMARK  118  A    between atoms: _281  and  _282
REMARK  119  A    between atoms: _284  and  _286
REMARK  120  A    between atoms: _286  and  _287
REMARK  121  A    between atoms: _286  and  _289
REMARK  122  A    between atoms: _289  and  _290
REMARK  123  A    between atoms: _293  and  _294
REMARK  124  A    between atoms: _299  and  _301
REMARK  125  A    between atoms: _301  and  _302
REMARK  126  A    between atoms: _301  and  _304
REMARK  127  A    between atoms: _304  and  _305
REMARK  128  A    between atoms: _305  and  _306
REMARK  129  A    between atoms: _306  and  _307
REMARK  130  A    between atoms: _307  and  _308
REMARK  131  A    between atoms: _312  and  _314
REMARK  132  A    between atoms: _314  and  _315
REMARK  133  A    between atoms: _314  and  _317
REMARK  134  A    between atoms: _317  and  _318
REMARK  135  A    between atoms: _318  and  _319
REMARK  136  A    between atoms: _321  and  _323
REMARK  137  A    between atoms: _323  and  _324
REMARK  138  A    between atoms: _323  and  _326
REMARK  139  A    between atoms: _326  and  _327
REMARK  140  A    between atoms: _330  and  _332
REMARK  141  A    between atoms: _332  and  _333
REMARK  142  A    between atoms: _332  and  _335
REMARK  143  A    between atoms: _335  and  _336
REMARK  144  A    between atoms: _338  and  _340
REMARK  145  A    between atoms: _340  and  _341
REMARK  146  A    between atoms: _340  and  _343
REMARK  147  A    between atoms: _343  and  _344
REMARK  148  A    between atoms: _347  and  _349
REMARK  149  A    between atoms: _349  and  _350
REMARK  150  A    between atoms: _349  and  _352
REMARK  151  A    between atoms: _352  and  _353
REMARK  152  A    between atoms: _353  and  _354
REMARK  153  A    between atoms: _357  and  _359
REMARK  154  A    between atoms: _359  and  _360
REMARK  155  A    between atoms: _363  and  _364
REMARK  156  A    between atoms: _369  and  _371
REMARK  157  A    between atoms: _371  and  _372
REMARK  158  A    between atoms: _375  and  _377
REMARK  159  A    between atoms: _377  and  _378
REMARK  160  A    between atoms: _377  and  _380
REMARK  161  A    between atoms: _380  and  _381
REMARK  162  A    between atoms: _381  and  _382
REMARK  163  A    between atoms: _385  and  _387
REMARK  164  A    between atoms: _387  and  _388
REMARK  165  A    between atoms: _387  and  _390
REMARK  166  A    between atoms: _390  and  _391
REMARK  167  A    between atoms: _396  and  _398
REMARK  168  A    between atoms: _398  and  _399
REMARK  169  A    between atoms: _398  and  _401
REMARK  170  A    between atoms: _401  and  _402
REMARK  171  A    between atoms: _405  and  _407
REMARK  172  A    between atoms: _407  and  _408
REMARK  173  A    between atoms: _407  and  _410
REMARK  174  A    between atoms: _410  and  _411
REMARK  175  A    between atoms: _414  and  _416
REMARK  176  A    between atoms: _416  and  _417
REMARK  177  A    between atoms: _416  and  _419
REMARK  178  A    between atoms: _419  and  _420
REMARK  179  A    between atoms: _426  and  _428
REMARK  180  A    between atoms: _428  and  _429
REMARK  181  A    between atoms: _428  and  _431
REMARK  182  A    between atoms: _434  and  _436
REMARK  183  A    between atoms: _436  and  _437
REMARK  184  A    between atoms: _436  and  _439
REMARK  185  A    between atoms: _439  and  _440
REMARK  186  A    between atoms: _443  and  _445
REMARK  187  A    between atoms: _445  and  _446
REMARK  188  A    between atoms: _449  and  _451
REMARK  189  A    between atoms: _451  and  _452
REMARK  190  A    between atoms: _451  and  _454
REMARK  191  A    between atoms: _454  and  _455
REMARK  192  A    between atoms: _460  and  _462
REMARK  193  A    between atoms: _462  and  _463
REMARK  194  A    between atoms: _462  and  _465
REMARK  195  A    between atoms: _465  and  _466
REMARK  196  A    between atoms: _466  and  _467
REMARK  197  A    between atoms: _467  and  _468
REMARK  198  A    between atoms: _468  and  _469
REMARK  199  A    between atoms: _473  and  _475
REMARK  200  A    between atoms: _475  and  _476
REMARK  201  A    between atoms: _475  and  _478
REMARK  202  A    between atoms: _478  and  _479
REMARK  203  A    between atoms: _482  and  _484
REMARK  204  A    between atoms: _484  and  _485
REMARK  205  A    between atoms: _487  and  _489
REMARK  206  A    between atoms: _489  and  _490
REMARK  207  A    between atoms: _489  and  _492
REMARK  208  A    between atoms: _492  and  _493
REMARK  209  A    between atoms: _498  and  _499
REMARK  210  A    between atoms: _501  and  _503
REMARK  211  A    between atoms: _503  and  _504
REMARK  212  A    between atoms: _503  and  _506
REMARK  213  A    between atoms: _506  and  _507
REMARK  214  A    between atoms: _512  and  _513
REMARK  215  A    between atoms: _515  and  _517
REMARK  216  A    between atoms: _517  and  _518
REMARK  217  A    between atoms: _517  and  _520
REMARK  218  A    between atoms: _520  and  _521
REMARK  219  A    between atoms: _524  and  _526
REMARK  220  A    between atoms: _526  and  _527
REMARK  221  A    between atoms: _526  and  _529
REMARK  222  A    between atoms: _529  and  _530
REMARK  223  A    between atoms: _535  and  _537
REMARK  224  A    between atoms: _537  and  _538
REMARK  225  A    between atoms: _537  and  _540
REMARK  226  A    between atoms: _540  and  _541
REMARK  227  A    between atoms: _541  and  _542
REMARK  228  A    between atoms: _542  and  _543
REMARK  229  A    between atoms: _552  and  _554
REMARK  230  A    between atoms: _554  and  _555
REMARK  231  A    between atoms: _554  and  _557
REMARK  232  A    between atoms: _557  and  _558
REMARK  233  A    between atoms: _563  and  _564
REMARK  234  A    between atoms: _566  and  _568
REMARK  235  A    between atoms: _568  and  _569
REMARK  236  A    between atoms: _568  and  _571
REMARK  237  A    between atoms: _571  and  _572
REMARK                            x       y       z     vdW  Elec       q    Type
REMARK                         _______ _______ _______ _____ _____    ______ ____
ROOT
ATOM      1  O   HOH     1       0.988   1.987 -31.710  0.00  0.00    +0.000 OA
ENDROOT
TORSDOF 0
REMARK  Name = ../refined-set-2016/4ymg/4ymg_pocket.pdb
REMARK  237 active torsions:
REMARK  status: ('A' for Active; 'I' for Inactive)
REMARK    1  A    between atoms: _1  and  _3
REMARK    2  A    between atoms: _3  and  _4
REMARK    3  A    between atoms: _3  and  _6
REMARK    4  A    between atoms: _6  and  _7
REMARK    5  A    between atoms: _12  and  _14
REMARK    6  A    between atoms: _14  and  _15
REMARK    7  A    between atoms: _14  and  _17
REMARK    8  A    between atoms: _17  and  _18
REMARK    9  A    between atoms: _28  and  _30
REMARK   10  A    between atoms: _30  and  _31
REMARK   11  A    between atoms: _30  and  _33
REMARK   12  A    between atoms: _33  and  _34
REMARK   13  A    between atoms: _37  and  _39
REMARK   14  A    between atoms: _39  and  _40
REMARK   15  A    between atoms: _39  and  _42
REMARK   16  A    between atoms: _42  and  _43
REMARK   17  A    between atoms: _46  and  _48
REMARK   18  A    between atoms: _48  and  _49
REMARK   19  A    between atoms: _52  and  _54
REMARK   20  A    between atoms: _54  and  _55
REMARK   21  A    between atoms: _54  and  _57
REMARK   22  A    between atoms: _57  and  _58
REMARK   23  A    between atoms: _61  and  _63
REMARK   24  A    between atoms: _63  and  _64
REMARK   25  A    between atoms: _63  and  _66
REMARK   26  A    between atoms: _66  and  _67
REMARK   27  A    between atoms: _67  and  _68
REMARK   28  A    between atoms: _68  and  _69
REMARK   29  A    between atoms: _69  and  _70
REMARK   30  A    between atoms: _74  and  _76
REMARK   31  A    between atoms: _76  and  _77
REMARK   32  A    between atoms: _76  and  _79
REMARK   33  A    between atoms: _79  and  _80
REMARK   34  A    between atoms: _80  and  _81
REMARK   35  A    between atoms: _83  and  _85
REMARK   36  A    between atoms: _85  and  _86
REMARK   37  A    between atoms: _85  and  _88
REMARK   38  A    between atoms: _88  and  _89
REMARK   39  A    between atoms: _91  and  _93
REMARK   40  A    between atoms: _93  and  _94
REMARK   41  A    between atoms: _93  and  _96
REMARK   42  A    between atoms: _96  and  _97
REMARK   43  A    between atoms: _99  and  _101
REMARK   44  A    between atoms: _101  and  _102
REMARK   45  A    between atoms: _101  and  _104
REMARK   46  A    between atoms: _104  and  _105
REMARK   47  A    between atoms: _105  and  _106
REMARK   48  A    between atoms: _111  and  _113
REMARK   49  A    between atoms: _113  and  _114
REMARK   50  A    between atoms: _116  and  _118
REMARK   51  A    between atoms: _118  and  _119
REMARK   52  A    between atoms: _118  and  _121
REMARK   53  A    between atoms: _121  and  _122
REMARK   54  A    between atoms: _122  and  _123
REMARK   55  A    between atoms: _125  and  _127
REMARK   56  A    between atoms: _127  and  _128
REMARK   57  A    between atoms: _127  and  _130
REMARK   58  A    between atoms: _130  and  _131
REMARK   59  A    between atoms: _131  and  _132
REMARK   60  A    between atoms: _135  and  _137
REMARK   61  A    between atoms: _137  and  _138
REMARK   62  A    between atoms: _137  and  _140
REMARK   63  A    between atoms: _140  and  _141
REMARK   64  A    between atoms: _144  and  _146
REMARK   65  A    between atoms: _146  and  _147
REMARK   66  A    between atoms: _149  and  _151
REMARK   67  A    between atoms: _151  and  _152
REMARK   68  A    between atoms: _151  and  _154
REMARK   69  A    between atoms: _156  and  _158
REMARK   70  A    between atoms: _158  and  _159
REMARK   71  A    between atoms: _158  and  _161
REMARK   72  A    between atoms: _161  and  _162
REMARK   73  A    between atoms: _167  and  _168
REMARK   74  A    between atoms: _170  and  _172
REMARK   75  A    between atoms: _172  and  _173
REMARK   76  A    between atoms: _172  and  _175
REMARK   77  A    between atoms: _175  and  _176
REMARK   78  A    between atoms: _178  and  _180
REMARK   79  A    between atoms: _180  and  _181
REMARK   80  A    between atoms: _183  and  _185
REMARK   81  A    between atoms: _185  and  _186
REMARK   82  A    between atoms: _185  and  _188
REMARK   83  A    between atoms: _188  and  _189
REMARK   84  A    between atoms: _194  and  _195
REMARK   85  A    between atoms: _197  and  _199
REMARK   86  A    between atoms: _199  and  _200
REMARK   87  A    between atoms: _199  and  _202
REMARK   88  A    between atoms: _202  and  _203
REMARK   89  A    between atoms: _205  and  _207
REMARK   90  A    between atoms: _207  and  _208
REMARK   91  A    between atoms: _211  and  _213
REMARK   92  A    between atoms: _213  and  _214
REMARK   93  A    between atoms: _213  and  _216
REMARK   94  A    between atoms: _216  and  _217
REMARK   95  A    between atoms: _220  and  _222
REMARK   96  A    between atoms: _222  and  _223
REMARK   97  A    between atoms: _226  and  _228
REMARK   98  A    between atoms: _228  and  _229
REMARK   99  A    between atoms: _228  and  _231
REMARK  100  A    between atoms: _231  and  _232
REMARK  101  A    between atoms: _242  and  _244
REMARK  102  A    between atoms: _244  and  _245
REMARK  103  A    between atoms: _244  and  _247
REMARK  104  A    between atoms: _247  and  _248
REMARK  105  A    between atoms: _251  and  _253
REMARK  106  A    between atoms: _253  and  _254
REMARK  107  A    between atoms: _253  and  _256
REMARK  108  A    between atoms: _256  and  _257
REMARK  109  A    between atoms: _260  and  _262
REMARK  110  A    between atoms: _262  and  _263
REMARK  111  A    between atoms: _262  and  _265
REMARK  112  A    between atoms: _265  and  _266
REMARK  113  A    between atoms: _266  and  _267
REMARK  114  A    between atoms: _270  and  _272
REMARK  115  A    between atoms: _272  and  _273
REMARK  116  A    between atoms: _272  and  _275
REMARK  117  A    between atoms: _275  and  _276
REMARK  118  A    between atoms: _281  and  _282
REMARK  119  A    between atoms: _284  and  _286
REMARK  120  A    between atoms: _286  and  _287
REMARK  121  A    between atoms: _286  and  _289
REMARK  122  A    between atoms: _289  and  _290
REMARK  123  A    between atoms: _293  and  _294
REMARK  124  A    between atoms: _299  and  _301
REMARK  125  A    between atoms: _301  and  _302
REMARK  126  A    between atoms: _301  and  _304
REMARK  127  A    between atoms: _304  and  _305
REMARK  128  A    between atoms: _305  and  _306
REMARK  129  A    between atoms: _306  and  _307
REMARK  130  A    between atoms: _307  and  _308
REMARK  131  A    between atoms: _312  and  _314
REMARK  132  A    between atoms: _314  and  _315
REMARK  133  A    between atoms: _314  and  _317
REMARK  134  A    between atoms: _317  and  _318
REMARK  135  A    between atoms: _318  and  _319
REMARK  136  A    between atoms: _321  and  _323
REMARK  137  A    between atoms: _323  and  _324
REMARK  138  A    between atoms: _323  and  _326
REMARK  139  A    between atoms: _326  and  _327
REMARK  140  A    between atoms: _330  and  _332
REMARK  141  A    between atoms: _332  and  _333
REMARK  142  A    between atoms: _332  and  _335
REMARK  143  A    between atoms: _335  and  _336
REMARK  144  A    between atoms: _338  and  _340
REMARK  145  A    between atoms: _340  and  _341
REMARK  146  A    between atoms: _340  and  _343
REMARK  147  A    between atoms: _343  and  _344
REMARK  148  A    between atoms: _347  and  _349
REMARK  149  A    between atoms: _349  and  _350
REMARK  150  A    between atoms: _349  and  _352
REMARK  151  A    between atoms: _352  and  _353
REMARK  152  A    between atoms: _353  and  _354
REMARK  153  A    between atoms: _357  and  _359
REMARK  154  A    between atoms: _359  and  _360
REMARK  155  A    between atoms: _363  and  _364
REMARK  156  A    between atoms: _369  and  _371
REMARK  157  A    between atoms: _371  and  _372
REMARK  158  A    between atoms: _375  and  _377
REMARK  159  A    between atoms: _377  and  _378
REMARK  160  A    between atoms: _377  and  _380
REMARK  161  A    between atoms: _380  and  _381
REMARK  162  A    between atoms: _381  and  _382
REMARK  163  A    between atoms: _385  and  _387
REMARK  164  A    between atoms: _387  and  _388
REMARK  165  A    between atoms: _387  and  _390
REMARK  166  A    between atoms: _390  and  _391
REMARK  167  A    between atoms: _396  and  _398
REMARK  168  A    between atoms: _398  and  _399
REMARK  169  A    between atoms: _398  and  _401
REMARK  170  A    between atoms: _401  and  _402
REMARK  171  A    between atoms: _405  and  _407
REMARK  172  A    between atoms: _407  and  _408
REMARK  173  A    between atoms: _407  and  _410
REMARK  174  A    between atoms: _410  and  _411
REMARK  175  A    between atoms: _414  and  _416
REMARK  176  A    between atoms: _416  and  _417
REMARK  177  A    between atoms: _416  and  _419
REMARK  178  A    between atoms: _419  and  _420
REMARK  179  A    between atoms: _426  and  _428
REMARK  180  A    between atoms: _428  and  _429
REMARK  181  A    between atoms: _428  and  _431
REMARK  182  A    between atoms: _434  and  _436
REMARK  183  A    between atoms: _436  and  _437
REMARK  184  A    between atoms: _436  and  _439
REMARK  185  A    between atoms: _439  and  _440
REMARK  186  A    between atoms: _443  and  _445
REMARK  187  A    between atoms: _445  and  _446
REMARK  188  A    between atoms: _449  and  _451
REMARK  189  A    between atoms: _451  and  _452
REMARK  190  A    between atoms: _451  and  _454
REMARK  191  A    between atoms: _454  and  _455
REMARK  192  A    between atoms: _460  and  _462
REMARK  193  A    between atoms: _462  and  _463
REMARK  194  A    between atoms: _462  and  _465
REMARK  195  A    between atoms: _465  and  _466
REMARK  196  A    between atoms: _466  and  _467
REMARK  197  A    between atoms: _467  and  _468
REMARK  198  A    between atoms: _468  and  _469
REMARK  199  A    between atoms: _473  and  _475
REMARK  200  A    between atoms: _475  and  _476
REMARK  201  A    between atoms: _475  and  _478
REMARK  202  A    between atoms: _478  and  _479
REMARK  203  A    between atoms: _482  and  _484
REMARK  204  A    between atoms: _484  and  _485
REMARK  205  A    between atoms: _487  and  _489
REMARK  206  A    between atoms: _489  and  _490
REMARK  207  A    between atoms: _489  and  _492
REMARK  208  A    between atoms: _492  and  _493
REMARK  209  A    between atoms: _498  and  _499
REMARK  210  A    between atoms: _501  and  _503
REMARK  211  A    between atoms: _503  and  _504
REMARK  212  A    between atoms: _503  and  _506
REMARK  213  A    between atoms: _506  and  _507
REMARK  214  A    between atoms: _512  and  _513
REMARK  215  A    between atoms: _515  and  _517
REMARK  216  A    between atoms: _517  and  _518
REMARK  217  A    between atoms: _517  and  _520
REMARK  218  A    between atoms: _520  and  _521
REMARK  219  A    between atoms: _524  and  _526
REMARK  220  A    between atoms: _526  and  _527
REMARK  221  A    between atoms: _526  and  _529
REMARK  222  A    between atoms: _529  and  _530
REMARK  223  A    between atoms: _535  and  _537
REMARK  224  A    between atoms: _537  and  _538
REMARK  225  A    between atoms: _537  and  _540
REMARK  226  A    between atoms: _540  and  _541
REMARK  227  A    between atoms: _541  and  _542
REMARK  228  A    between atoms: _542  and  _543
REMARK  229  A    between atoms: _552  and  _554
REMARK  230  A    between atoms: _554  and  _555
REMARK  231  A    between atoms: _554  and  _557
REMARK  232  A    between atoms: _557  and  _558
REMARK  233  A    between atoms: _563  and  _564
REMARK  234  A    between atoms: _566  and  _568
REMARK  235  A    between atoms: _568  and  _569
REMARK  236  A    between atoms: _568  and  _571
REMARK  237  A    between atoms: _571  and  _572
REMARK                            x       y       z     vdW  Elec       q    Type
REMARK                         _______ _______ _______ _____ _____    ______ ____
ROOT
ATOM      1  O   HOH     1      -4.708  -6.587 -18.320  0.00  0.00    +0.000 OA
ENDROOT
TORSDOF 0
REMARK  Name = ../refined-set-2016/4ymg/4ymg_pocket.pdb
REMARK  237 active torsions:
REMARK  status: ('A' for Active; 'I' for Inactive)
REMARK    1  A    between atoms: _1  and  _3
REMARK    2  A    between atoms: _3  and  _4
REMARK    3  A    between atoms: _3  and  _6
REMARK    4  A    between atoms: _6  and  _7
REMARK    5  A    between atoms: _12  and  _14
REMARK    6  A    between atoms: _14  and  _15
REMARK    7  A    between atoms: _14  and  _17
REMARK    8  A    between atoms: _17  and  _18
REMARK    9  A    between atoms: _28  and  _30
REMARK   10  A    between atoms: _30  and  _31
REMARK   11  A    between atoms: _30  and  _33
REMARK   12  A    between atoms: _33  and  _34
REMARK   13  A    between atoms: _37  and  _39
REMARK   14  A    between atoms: _39  and  _40
REMARK   15  A    between atoms: _39  and  _42
REMARK   16  A    between atoms: _42  and  _43
REMARK   17  A    between atoms: _46  and  _48
REMARK   18  A    between atoms: _48  and  _49
REMARK   19  A    between atoms: _52  and  _54
REMARK   20  A    between atoms: _54  and  _55
REMARK   21  A    between atoms: _54  and  _57
REMARK   22  A    between atoms: _57  and  _58
REMARK   23  A    between atoms: _61  and  _63
REMARK   24  A    between atoms: _63  and  _64
REMARK   25  A    between atoms: _63  and  _66
REMARK   26  A    between atoms: _66  and  _67
REMARK   27  A    between atoms: _67  and  _68
REMARK   28  A    between atoms: _68  and  _69
REMARK   29  A    between atoms: _69  and  _70
REMARK   30  A    between atoms: _74  and  _76
REMARK   31  A    between atoms: _76  and  _77
REMARK   32  A    between atoms: _76  and  _79
REMARK   33  A    between atoms: _79  and  _80
REMARK   34  A    between atoms: _80  and  _81
REMARK   35  A    between atoms: _83  and  _85
REMARK   36  A    between atoms: _85  and  _86
REMARK   37  A    between atoms: _85  and  _88
REMARK   38  A    between atoms: _88  and  _89
REMARK   39  A    between atoms: _91  and  _93
REMARK   40  A    between atoms: _93  and  _94
REMARK   41  A    between atoms: _93  and  _96
REMARK   42  A    between atoms: _96  and  _97
REMARK   43  A    between atoms: _99  and  _101
REMARK   44  A    between atoms: _101  and  _102
REMARK   45  A    between atoms: _101  and  _104
REMARK   46  A    between atoms: _104  and  _105
REMARK   47  A    between atoms: _105  and  _106
REMARK   48  A    between atoms: _111  and  _113
REMARK   49  A    between atoms: _113  and  _114
REMARK   50  A    between atoms: _116  and  _118
REMARK   51  A    between atoms: _118  and  _119
REMARK   52  A    between atoms: _118  and  _121
REMARK   53  A    between atoms: _121  and  _122
REMARK   54  A    between atoms: _122  and  _123
REMARK   55  A    between atoms: _125  and  _127
REMARK   56  A    between atoms: _127  and  _128
REMARK   57  A    between atoms: _127  and  _130
REMARK   58  A    between atoms: _130  and  _131
REMARK   59  A    between atoms: _131  and  _132
REMARK   60  A    between atoms: _135  and  _137
REMARK   61  A    between atoms: _137  and  _138
REMARK   62  A    between atoms: _137  and  _140
REMARK   63  A    between atoms: _140  and  _141
REMARK   64  A    between atoms: _144  and  _146
REMARK   65  A    between atoms: _146  and  _147
REMARK   66  A    between atoms: _149  and  _151
REMARK   67  A    between atoms: _151  and  _152
REMARK   68  A    between atoms: _151  and  _154
REMARK   69  A    between atoms: _156  and  _158
REMARK   70  A    between atoms: _158  and  _159
REMARK   71  A    between atoms: _158  and  _161
REMARK   72  A    between atoms: _161  and  _162
REMARK   73  A    between atoms: _167  and  _168
REMARK   74  A    between atoms: _170  and  _172
REMARK   75  A    between atoms: _172  and  _173
REMARK   76  A    between atoms: _172  and  _175
REMARK   77  A    between atoms: _175  and  _176
REMARK   78  A    between atoms: _178  and  _180
REMARK   79  A    between atoms: _180  and  _181
REMARK   80  A    between atoms: _183  and  _185
REMARK   81  A    between atoms: _185  and  _186
REMARK   82  A    between atoms: _185  and  _188
REMARK   83  A    between atoms: _188  and  _189
REMARK   84  A    between atoms: _194  and  _195
REMARK   85  A    between atoms: _197  and  _199
REMARK   86  A    between atoms: _199  and  _200
REMARK   87  A    between atoms: _199  and  _202
REMARK   88  A    between atoms: _202  and  _203
REMARK   89  A    between atoms: _205  and  _207
REMARK   90  A    between atoms: _207  and  _208
REMARK   91  A    between atoms: _211  and  _213
REMARK   92  A    between atoms: _213  and  _214
REMARK   93  A    between atoms: _213  and  _216
REMARK   94  A    between atoms: _216  and  _217
REMARK   95  A    between atoms: _220  and  _222
REMARK   96  A    between atoms: _222  and  _223
REMARK   97  A    between atoms: _226  and  _228
REMARK   98  A    between atoms: _228  and  _229
REMARK   99  A    between atoms: _228  and  _231
REMARK  100  A    between atoms: _231  and  _232
REMARK  101  A    between atoms: _242  and  _244
REMARK  102  A    between atoms: _244  and  _245
REMARK  103  A    between atoms: _244  and  _247
REMARK  104  A    between atoms: _247  and  _248
REMARK  105  A    between atoms: _251  and  _253
REMARK  106  A    between atoms: _253  and  _254
REMARK  107  A    between atoms: _253  and  _256
REMARK  108  A    between atoms: _256  and  _257
REMARK  109  A    between atoms: _260  and  _262
REMARK  110  A    between atoms: _262  and  _263
REMARK  111  A    between atoms: _262  and  _265
REMARK  112  A    between atoms: _265  and  _266
REMARK  113  A    between atoms: _266  and  _267
REMARK  114  A    between atoms: _270  and  _272
REMARK  115  A    between atoms: _272  and  _273
REMARK  116  A    between atoms: _272  and  _275
REMARK  117  A    between atoms: _275  and  _276
REMARK  118  A    between atoms: _281  and  _282
REMARK  119  A    between atoms: _284  and  _286
REMARK  120  A    between atoms: _286  and  _287
REMARK  121  A    between atoms: _286  and  _289
REMARK  122  A    between atoms: _289  and  _290
REMARK  123  A    between atoms: _293  and  _294
REMARK  124  A    between atoms: _299  and  _301
REMARK  125  A    between atoms: _301  and  _302
REMARK  126  A    between atoms: _301  and  _304
REMARK  127  A    between atoms: _304  and  _305
REMARK  128  A    between atoms: _305  and  _306
REMARK  129  A    between atoms: _306  and  _307
REMARK  130  A    between atoms: _307  and  _308
REMARK  131  A    between atoms: _312  and  _314
REMARK  132  A    between atoms: _314  and  _315
REMARK  133  A    between atoms: _314  and  _317
REMARK  134  A    between atoms: _317  and  _318
REMARK  135  A    between atoms: _318  and  _319
REMARK  136  A    between atoms: _321  and  _323
REMARK  137  A    between atoms: _323  and  _324
REMARK  138  A    between atoms: _323  and  _326
REMARK  139  A    between atoms: _326  and  _327
REMARK  140  A    between atoms: _330  and  _332
REMARK  141  A    between atoms: _332  and  _333
REMARK  142  A    between atoms: _332  and  _335
REMARK  143  A    between atoms: _335  and  _336
REMARK  144  A    between atoms: _338  and  _340
REMARK  145  A    between atoms: _340  and  _341
REMARK  146  A    between atoms: _340  and  _343
REMARK  147  A    between atoms: _343  and  _344
REMARK  148  A    between atoms: _347  and  _349
REMARK  149  A    between atoms: _349  and  _350
REMARK  150  A    between atoms: _349  and  _352
REMARK  151  A    between atoms: _352  and  _353
REMARK  152  A    between atoms: _353  and  _354
REMARK  153  A    between atoms: _357  and  _359
REMARK  154  A    between atoms: _359  and  _360
REMARK  155  A    between atoms: _363  and  _364
REMARK  156  A    between atoms: _369  and  _371
REMARK  157  A    between atoms: _371  and  _372
REMARK  158  A    between atoms: _375  and  _377
REMARK  159  A    between atoms: _377  and  _378
REMARK  160  A    between atoms: _377  and  _380
REMARK  161  A    between atoms: _380  and  _381
REMARK  162  A    between atoms: _381  and  _382
REMARK  163  A    between atoms: _385  and  _387
REMARK  164  A    between atoms: _387  and  _388
REMARK  165  A    between atoms: _387  and  _390
REMARK  166  A    between atoms: _390  and  _391
REMARK  167  A    between atoms: _396  and  _398
REMARK  168  A    between atoms: _398  and  _399
REMARK  169  A    between atoms: _398  and  _401
REMARK  170  A    between atoms: _401  and  _402
REMARK  171  A    between atoms: _405  and  _407
REMARK  172  A    between atoms: _407  and  _408
REMARK  173  A    between atoms: _407  and  _410
REMARK  174  A    between atoms: _410  and  _411
REMARK  175  A    between atoms: _414  and  _416
REMARK  176  A    between atoms: _416  and  _417
REMARK  177  A    between atoms: _416  and  _419
REMARK  178  A    between atoms: _419  and  _420
REMARK  179  A    between atoms: _426  and  _428
REMARK  180  A    between atoms: _428  and  _429
REMARK  181  A    between atoms: _428  and  _431
REMARK  182  A    between atoms: _434  and  _436
REMARK  183  A    between atoms: _436  and  _437
REMARK  184  A    between atoms: _436  and  _439
REMARK  185  A    between atoms: _439  and  _440
REMARK  186  A    between atoms: _443  and  _445
REMARK  187  A    between atoms: _445  and  _446
REMARK  188  A    between atoms: _449  and  _451
REMARK  189  A    between atoms: _451  and  _452
REMARK  190  A    between atoms: _451  and  _454
REMARK  191  A    between atoms: _454  and  _455
REMARK  192  A    between atoms: _460  and  _462
REMARK  193  A    between atoms: _462  and  _463
REMARK  194  A    between atoms: _462  and  _465
REMARK  195  A    between atoms: _465  and  _466
REMARK  196  A    between atoms: _466  and  _467
REMARK  197  A    between atoms: _467  and  _468
REMARK  198  A    between atoms: _468  and  _469
REMARK  199  A    between atoms: _473  and  _475
REMARK  200  A    between atoms: _475  and  _476
REMARK  201  A    between atoms: _475  and  _478
REMARK  202  A    between atoms: _478  and  _479
REMARK  203  A    between atoms: _482  and  _484
REMARK  204  A    between atoms: _484  and  _485
REMARK  205  A    between atoms: _487  and  _489
REMARK  206  A    between atoms: _489  and  _490
REMARK  207  A    between atoms: _489  and  _492
REMARK  208  A    between atoms: _492  and  _493
REMARK  209  A    between atoms: _498  and  _499
REMARK  210  A    between atoms: _501  and  _503
REMARK  211  A    between atoms: _503  and  _504
REMARK  212  A    between atoms: _503  and  _506
REMARK  213  A    between atoms: _506  and  _507
REMARK  214  A    between atoms: _512  and  _513
REMARK  215  A    between atoms: _515  and  _517
REMARK  216  A    between atoms: _517  and  _518
REMARK  217  A    between atoms: _517  and  _520
REMARK  218  A    between atoms: _520  and  _521
REMARK  219  A    between atoms: _524  and  _526
REMARK  220  A    between atoms: _526  and  _527
REMARK  221  A    between atoms: _526  and  _529
REMARK  222  A    between atoms: _529  and  _530
REMARK  223  A    between atoms: _535  and  _537
REMARK  224  A    between atoms: _537  and  _538
REMARK  225  A    between atoms: _537  and  _540
REMARK  226  A    between atoms: _540  and  _541
REMARK  227  A    between atoms: _541  and  _542
REMARK  228  A    between atoms: _542  and  _543
REMARK  229  A    between atoms: _552  and  _554
REMARK  230  A    between atoms: _554  and  _555
REMARK  231  A    between atoms: _554  and  _557
REMARK  232  A    between atoms: _557  and  _558
REMARK  233  A    between atoms: _563  and  _564
REMARK  234  A    between atoms: _566  and  _568
REMARK  235  A    between atoms: _568  and  _569
REMARK  236  A    between atoms: _568  and  _571
REMARK  237  A    between atoms: _571  and  _572
REMARK                            x       y       z     vdW  Elec       q    Type
REMARK                         _______ _______ _______ _____ _____    ______ ____
ROOT
ATOM      1  O   HOH     1      -4.941   0.872 -15.125  0.00  0.00    +0.000 OA
ENDROOT
TORSDOF 0
REMARK  Name = ../refined-set-2016/4ymg/4ymg_pocket.pdb
REMARK  237 active torsions:
REMARK  status: ('A' for Active; 'I' for Inactive)
REMARK    1  A    between atoms: _1  and  _3
REMARK    2  A    between atoms: _3  and  _4
REMARK    3  A    between atoms: _3  and  _6
REMARK    4  A    between atoms: _6  and  _7
REMARK    5  A    between atoms: _12  and  _14
REMARK    6  A    between atoms: _14  and  _15
REMARK    7  A    between atoms: _14  and  _17
REMARK    8  A    between atoms: _17  and  _18
REMARK    9  A    between atoms: _28  and  _30
REMARK   10  A    between atoms: _30  and  _31
REMARK   11  A    between atoms: _30  and  _33
REMARK   12  A    between atoms: _33  and  _34
REMARK   13  A    between atoms: _37  and  _39
REMARK   14  A    between atoms: _39  and  _40
REMARK   15  A    between atoms: _39  and  _42
REMARK   16  A    between atoms: _42  and  _43
REMARK   17  A    between atoms: _46  and  _48
REMARK   18  A    between atoms: _48  and  _49
REMARK   19  A    between atoms: _52  and  _54
REMARK   20  A    between atoms: _54  and  _55
REMARK   21  A    between atoms: _54  and  _57
REMARK   22  A    between atoms: _57  and  _58
REMARK   23  A    between atoms: _61  and  _63
REMARK   24  A    between atoms: _63  and  _64
REMARK   25  A    between atoms: _63  and  _66
REMARK   26  A    between atoms: _66  and  _67
REMARK   27  A    between atoms: _67  and  _68
REMARK   28  A    between atoms: _68  and  _69
REMARK   29  A    between atoms: _69  and  _70
REMARK   30  A    between atoms: _74  and  _76
REMARK   31  A    between atoms: _76  and  _77
REMARK   32  A    between atoms: _76  and  _79
REMARK   33  A    between atoms: _79  and  _80
REMARK   34  A    between atoms: _80  and  _81
REMARK   35  A    between atoms: _83  and  _85
REMARK   36  A    between atoms: _85  and  _86
REMARK   37  A    between atoms: _85  and  _88
REMARK   38  A    between atoms: _88  and  _89
REMARK   39  A    between atoms: _91  and  _93
REMARK   40  A    between atoms: _93  and  _94
REMARK   41  A    between atoms: _93  and  _96
REMARK   42  A    between atoms: _96  and  _97
REMARK   43  A    between atoms: _99  and  _101
REMARK   44  A    between atoms: _101  and  _102
REMARK   45  A    between atoms: _101  and  _104
REMARK   46  A    between atoms: _104  and  _105
REMARK   47  A    between atoms: _105  and  _106
REMARK   48  A    between atoms: _111  and  _113
REMARK   49  A    between atoms: _113  and  _114
REMARK   50  A    between atoms: _116  and  _118
REMARK   51  A    between atoms: _118  and  _119
REMARK   52  A    between atoms: _118  and  _121
REMARK   53  A    between atoms: _121  and  _122
REMARK   54  A    between atoms: _122  and  _123
REMARK   55  A    between atoms: _125  and  _127
REMARK   56  A    between atoms: _127  and  _128
REMARK   57  A    between atoms: _127  and  _130
REMARK   58  A    between atoms: _130  and  _131
REMARK   59  A    between atoms: _131  and  _132
REMARK   60  A    between atoms: _135  and  _137
REMARK   61  A    between atoms: _137  and  _138
REMARK   62  A    between atoms: _137  and  _140
REMARK   63  A    between atoms: _140  and  _141
REMARK   64  A    between atoms: _144  and  _146
REMARK   65  A    between atoms: _146  and  _147
REMARK   66  A    between atoms: _149  and  _151
REMARK   67  A    between atoms: _151  and  _152
REMARK   68  A    between atoms: _151  and  _154
REMARK   69  A    between atoms: _156  and  _158
REMARK   70  A    between atoms: _158  and  _159
REMARK   71  A    between atoms: _158  and  _161
REMARK   72  A    between atoms: _161  and  _162
REMARK   73  A    between atoms: _167  and  _168
REMARK   74  A    between atoms: _170  and  _172
REMARK   75  A    between atoms: _172  and  _173
REMARK   76  A    between atoms: _172  and  _175
REMARK   77  A    between atoms: _175  and  _176
REMARK   78  A    between atoms: _178  and  _180
REMARK   79  A    between atoms: _180  and  _181
REMARK   80  A    between atoms: _183  and  _185
REMARK   81  A    between atoms: _185  and  _186
REMARK   82  A    between atoms: _185  and  _188
REMARK   83  A    between atoms: _188  and  _189
REMARK   84  A    between atoms: _194  and  _195
REMARK   85  A    between atoms: _197  and  _199
REMARK   86  A    between atoms: _199  and  _200
REMARK   87  A    between atoms: _199  and  _202
REMARK   88  A    between atoms: _202  and  _203
REMARK   89  A    between atoms: _205  and  _207
REMARK   90  A    between atoms: _207  and  _208
REMARK   91  A    between atoms: _211  and  _213
REMARK   92  A    between atoms: _213  and  _214
REMARK   93  A    between atoms: _213  and  _216
REMARK   94  A    between atoms: _216  and  _217
REMARK   95  A    between atoms: _220  and  _222
REMARK   96  A    between atoms: _222  and  _223
REMARK   97  A    between atoms: _226  and  _228
REMARK   98  A    between atoms: _228  and  _229
REMARK   99  A    between atoms: _228  and  _231
REMARK  100  A    between atoms: _231  and  _232
REMARK  101  A    between atoms: _242  and  _244
REMARK  102  A    between atoms: _244  and  _245
REMARK  103  A    between atoms: _244  and  _247
REMARK  104  A    between atoms: _247  and  _248
REMARK  105  A    between atoms: _251  and  _253
REMARK  106  A    between atoms: _253  and  _254
REMARK  107  A    between atoms: _253  and  _256
REMARK  108  A    between atoms: _256  and  _257
REMARK  109  A    between atoms: _260  and  _262
REMARK  110  A    between atoms: _262  and  _263
REMARK  111  A    between atoms: _262  and  _265
REMARK  112  A    between atoms: _265  and  _266
REMARK  113  A    between atoms: _266  and  _267
REMARK  114  A    between atoms: _270  and  _272
REMARK  115  A    between atoms: _272  and  _273
REMARK  116  A    between atoms: _272  and  _275
REMARK  117  A    between atoms: _275  and  _276
REMARK  118  A    between atoms: _281  and  _282
REMARK  119  A    between atoms: _284  and  _286
REMARK  120  A    between atoms: _286  and  _287
REMARK  121  A    between atoms: _286  and  _289
REMARK  122  A    between atoms: _289  and  _290
REMARK  123  A    between atoms: _293  and  _294
REMARK  124  A    between atoms: _299  and  _301
REMARK  125  A    between atoms: _301  and  _302
REMARK  126  A    between atoms: _301  and  _304
REMARK  127  A    between atoms: _304  and  _305
REMARK  128  A    between atoms: _305  and  _306
REMARK  129  A    between atoms: _306  and  _307
REMARK  130  A    between atoms: _307  and  _308
REMARK  131  A    between atoms: _312  and  _314
REMARK  132  A    between atoms: _314  and  _315
REMARK  133  A    between atoms: _314  and  _317
REMARK  134  A    between atoms: _317  and  _318
REMARK  135  A    between atoms: _318  and  _319
REMARK  136  A    between atoms: _321  and  _323
REMARK  137  A    between atoms: _323  and  _324
REMARK  138  A    between atoms: _323  and  _326
REMARK  139  A    between atoms: _326  and  _327
REMARK  140  A    between atoms: _330  and  _332
REMARK  141  A    between atoms: _332  and  _333
REMARK  142  A    between atoms: _332  and  _335
REMARK  143  A    between atoms: _335  and  _336
REMARK  144  A    between atoms: _338  and  _340
REMARK  145  A    between atoms: _340  and  _341
REMARK  146  A    between atoms: _340  and  _343
REMARK  147  A    between atoms: _343  and  _344
REMARK  148  A    between atoms: _347  and  _349
REMARK  149  A    between atoms: _349  and  _350
REMARK  150  A    between atoms: _349  and  _352
REMARK  151  A    between atoms: _352  and  _353
REMARK  152  A    between atoms: _353  and  _354
REMARK  153  A    between atoms: _357  and  _359
REMARK  154  A    between atoms: _359  and  _360
REMARK  155  A    between atoms: _363  and  _364
REMARK  156  A    between atoms: _369  and  _371
REMARK  157  A    between atoms: _371  and  _372
REMARK  158  A    between atoms: _375  and  _377
REMARK  159  A    between atoms: _377  and  _378
REMARK  160  A    between atoms: _377  and  _380
REMARK  161  A    between atoms: _380  and  _381
REMARK  162  A    between atoms: _381  and  _382
REMARK  163  A    between atoms: _385  and  _387
REMARK  164  A    between atoms: _387  and  _388
REMARK  165  A    between atoms: _387  and  _390
REMARK  166  A    between atoms: _390  and  _391
REMARK  167  A    between atoms: _396  and  _398
REMARK  168  A    between atoms: _398  and  _399
REMARK  169  A    between atoms: _398  and  _401
REMARK  170  A    between atoms: _401  and  _402
REMARK  171  A    between atoms: _405  and  _407
REMARK  172  A    between atoms: _407  and  _408
REMARK  173  A    between atoms: _407  and  _410
REMARK  174  A    between atoms: _410  and  _411
REMARK  175  A    between atoms: _414  and  _416
REMARK  176  A    between atoms: _416  and  _417
REMARK  177  A    between atoms: _416  and  _419
REMARK  178  A    between atoms: _419  and  _420
REMARK  179  A    between atoms: _426  and  _428
REMARK  180  A    between atoms: _428  and  _429
REMARK  181  A    between atoms: _428  and  _431
REMARK  182  A    between atoms: _434  and  _436
REMARK  183  A    between atoms: _436  and  _437
REMARK  184  A    between atoms: _436  and  _439
REMARK  185  A    between atoms: _439  and  _440
REMARK  186  A    between atoms: _443  and  _445
REMARK  187  A    between atoms: _445  and  _446
REMARK  188  A    between atoms: _449  and  _451
REMARK  189  A    between atoms: _451  and  _452
REMARK  190  A    between atoms: _451  and  _454
REMARK  191  A    between atoms: _454  and  _455
REMARK  192  A    between atoms: _460  and  _462
REMARK  193  A    between atoms: _462  and  _463
REMARK  194  A    between atoms: _462  and  _465
REMARK  195  A    between atoms: _465  and  _466
REMARK  196  A    between atoms: _466  and  _467
REMARK  197  A    between atoms: _467  and  _468
REMARK  198  A    between atoms: _468  and  _469
REMARK  199  A    between atoms: _473  and  _475
REMARK  200  A    between atoms: _475  and  _476
REMARK  201  A    between atoms: _475  and  _478
REMARK  202  A    between atoms: _478  and  _479
REMARK  203  A    between atoms: _482  and  _484
REMARK  204  A    between atoms: _484  and  _485
REMARK  205  A    between atoms: _487  and  _489
REMARK  206  A    between atoms: _489  and  _490
REMARK  207  A    between atoms: _489  and  _492
REMARK  208  A    between atoms: _492  and  _493
REMARK  209  A    between atoms: _498  and  _499
REMARK  210  A    between atoms: _501  and  _503
REMARK  211  A    between atoms: _503  and  _504
REMARK  212  A    between atoms: _503  and  _506
REMARK  213  A    between atoms: _506  and  _507
REMARK  214  A    between atoms: _512  and  _513
REMARK  215  A    between atoms: _515  and  _517
REMARK  216  A    between atoms: _517  and  _518
REMARK  217  A    between atoms: _517  and  _520
REMARK  218  A    between atoms: _520  and  _521
REMARK  219  A    between atoms: _524  and  _526
REMARK  220  A    between atoms: _526  and  _527
REMARK  221  A    between atoms: _526  and  _529
REMARK  222  A    between atoms: _529  and  _530
REMARK  223  A    between atoms: _535  and  _537
REMARK  224  A    between atoms: _537  and  _538
REMARK  225  A    between atoms: _537  and  _540
REMARK  226  A    between atoms: _540  and  _541
REMARK  227  A    between atoms: _541  and  _542
REMARK  228  A    between atoms: _542  and  _543
REMARK  229  A    between atoms: _552  and  _554
REMARK  230  A    between atoms: _554  and  _555
REMARK  231  A    between atoms: _554  and  _557
REMARK  232  A    between atoms: _557  and  _558
REMARK  233  A    between atoms: _563  and  _564
REMARK  234  A    between atoms: _566  and  _568
REMARK  235  A    between atoms: _568  and  _569
REMARK  236  A    between atoms: _568  and  _571
REMARK  237  A    between atoms: _571  and  _572
REMARK                            x       y       z     vdW  Elec       q    Type
REMARK                         _______ _______ _______ _____ _____    ______ ____
ROOT
ATOM      1  O   HOH     1       0.740  -4.794 -28.300  0.00  0.00    +0.000 OA
ENDROOT
TORSDOF 0
