REMARK  Name = ../refined-set-2016/3d7k/3d7k_pocket.pdb
REMARK  268 active torsions:
REMARK  status: ('A' for Active; 'I' for Inactive)
REMARK    1  A    between atoms: _1  and  _3
REMARK    2  A    between atoms: _3  and  _4
REMARK    3  A    between atoms: _3  and  _6
REMARK    4  A    between atoms: _6  and  _7
REMARK    5  A    between atoms: _10  and  _12
REMARK    6  A    between atoms: _12  and  _13
REMARK    7  A    between atoms: _12  and  _15
REMARK    8  A    between atoms: _15  and  _16
REMARK    9  A    between atoms: _20  and  _21
REMARK   10  A    between atoms: _26  and  _28
REMARK   11  A    between atoms: _28  and  _29
REMARK   12  A    between atoms: _28  and  _31
REMARK   13  A    between atoms: _31  and  _32
REMARK   14  A    between atoms: _35  and  _37
REMARK   15  A    between atoms: _37  and  _38
REMARK   16  A    between atoms: _40  and  _42
REMARK   17  A    between atoms: _42  and  _43
REMARK   18  A    between atoms: _46  and  _48
REMARK   19  A    between atoms: _48  and  _49
REMARK   20  A    between atoms: _48  and  _51
REMARK   21  A    between atoms: _51  and  _52
REMARK   22  A    between atoms: _55  and  _57
REMARK   23  A    between atoms: _57  and  _58
REMARK   24  A    between atoms: _57  and  _60
REMARK   25  A    between atoms: _60  and  _61
REMARK   26  A    between atoms: _64  and  _66
REMARK   27  A    between atoms: _66  and  _67
REMARK   28  A    between atoms: _66  and  _69
REMARK   29  A    between atoms: _69  and  _70
REMARK   30  A    between atoms: _75  and  _76
REMARK   31  A    between atoms: _78  and  _80
REMARK   32  A    between atoms: _80  and  _81
REMARK   33  A    between atoms: _80  and  _83
REMARK   34  A    between atoms: _83  and  _84
REMARK   35  A    between atoms: _87  and  _89
REMARK   36  A    between atoms: _89  and  _90
REMARK   37  A    between atoms: _89  and  _92
REMARK   38  A    between atoms: _92  and  _93
REMARK   39  A    between atoms: _103  and  _105
REMARK   40  A    between atoms: _105  and  _106
REMARK   41  A    between atoms: _105  and  _108
REMARK   42  A    between atoms: _108  and  _109
REMARK   43  A    between atoms: _112  and  _114
REMARK   44  A    between atoms: _114  and  _115
REMARK   45  A    between atoms: _114  and  _117
REMARK   46  A    between atoms: _117  and  _118
REMARK   47  A    between atoms: _123  and  _125
REMARK   48  A    between atoms: _125  and  _126
REMARK   49  A    between atoms: _128  and  _130
REMARK   50  A    between atoms: _130  and  _131
REMARK   51  A    between atoms: _130  and  _133
REMARK   52  A    between atoms: _133  and  _134
REMARK   53  A    between atoms: _139  and  _140
REMARK   54  A    between atoms: _142  and  _144
REMARK   55  A    between atoms: _144  and  _145
REMARK   56  A    between atoms: _144  and  _147
REMARK   57  A    between atoms: _147  and  _148
REMARK   58  A    between atoms: _151  and  _153
REMARK   59  A    between atoms: _153  and  _154
REMARK   60  A    between atoms: _156  and  _158
REMARK   61  A    between atoms: _158  and  _159
REMARK   62  A    between atoms: _158  and  _161
REMARK   63  A    between atoms: _161  and  _162
REMARK   64  A    between atoms: _164  and  _166
REMARK   65  A    between atoms: _166  and  _167
REMARK   66  A    between atoms: _166  and  _169
REMARK   67  A    between atoms: _169  and  _170
REMARK   68  A    between atoms: _170  and  _171
REMARK   69  A    between atoms: _173  and  _175
REMARK   70  A    between atoms: _175  and  _176
REMARK   71  A    between atoms: _178  and  _180
REMARK   72  A    between atoms: _180  and  _181
REMARK   73  A    between atoms: _180  and  _183
REMARK   74  A    between atoms: _186  and  _188
REMARK   75  A    between atoms: _188  and  _189
REMARK   76  A    between atoms: _188  and  _191
REMARK   77  A    between atoms: _191  and  _192
REMARK   78  A    between atoms: _195  and  _197
REMARK   79  A    between atoms: _197  and  _198
REMARK   80  A    between atoms: _200  and  _202
REMARK   81  A    between atoms: _202  and  _203
REMARK   82  A    between atoms: _202  and  _205
REMARK   83  A    between atoms: _205  and  _206
REMARK   84  A    between atoms: _206  and  _207
REMARK   85  A    between atoms: _207  and  CA_676
REMARK   86  A    between atoms: _209  and  _211
REMARK   87  A    between atoms: _211  and  _212
REMARK   88  A    between atoms: _214  and  _216
REMARK   89  A    between atoms: _216  and  _217
REMARK   90  A    between atoms: _216  and  _219
REMARK   91  A    between atoms: _219  and  _220
REMARK   92  A    between atoms: _222  and  _224
REMARK   93  A    between atoms: _224  and  _225
REMARK   94  A    between atoms: _224  and  _227
REMARK   95  A    between atoms: _230  and  _232
REMARK   96  A    between atoms: _232  and  _233
REMARK   97  A    between atoms: _235  and  _237
REMARK   98  A    between atoms: _237  and  _238
REMARK   99  A    between atoms: _237  and  _240
REMARK  100  A    between atoms: _240  and  _241
REMARK  101  A    between atoms: _246  and  _247
REMARK  102  A    between atoms: _249  and  _251
REMARK  103  A    between atoms: _251  and  _252
REMARK  104  A    between atoms: _251  and  _254
REMARK  105  A    between atoms: _254  and  _255
REMARK  106  A    between atoms: _258  and  _260
REMARK  107  A    between atoms: _260  and  _261
REMARK  108  A    between atoms: _260  and  _263
REMARK  109  A    between atoms: _263  and  _264
REMARK  110  A    between atoms: _264  and  _265
REMARK  111  A    between atoms: _267  and  _269
REMARK  112  A    between atoms: _269  and  _270
REMARK  113  A    between atoms: _269  and  _272
REMARK  114  A    between atoms: _272  and  _273
REMARK  115  A    between atoms: _278  and  _280
REMARK  116  A    between atoms: _280  and  _281
REMARK  117  A    between atoms: _280  and  _283
REMARK  118  A    between atoms: _283  and  _284
REMARK  119  A    between atoms: _289  and  _291
REMARK  120  A    between atoms: _291  and  _292
REMARK  121  A    between atoms: _291  and  _294
REMARK  122  A    between atoms: _294  and  _295
REMARK  123  A    between atoms: _295  and  _296
REMARK  124  A    between atoms: _301  and  _303
REMARK  125  A    between atoms: _303  and  _304
REMARK  126  A    between atoms: _303  and  _306
REMARK  127  A    between atoms: _306  and  _307
REMARK  128  A    between atoms: _309  and  _311
REMARK  129  A    between atoms: _311  and  _312
REMARK  130  A    between atoms: _311  and  _314
REMARK  131  A    between atoms: _314  and  _315
REMARK  132  A    between atoms: _325  and  _327
REMARK  133  A    between atoms: _327  and  _328
REMARK  134  A    between atoms: _330  and  _332
REMARK  135  A    between atoms: _332  and  _333
REMARK  136  A    between atoms: _336  and  _338
REMARK  137  A    between atoms: _338  and  _339
REMARK  138  A    between atoms: _338  and  _341
REMARK  139  A    between atoms: _341  and  _342
REMARK  140  A    between atoms: _345  and  _347
REMARK  141  A    between atoms: _347  and  _348
REMARK  142  A    between atoms: _347  and  _350
REMARK  143  A    between atoms: _350  and  _351
REMARK  144  A    between atoms: _354  and  _356
REMARK  145  A    between atoms: _356  and  _357
REMARK  146  A    between atoms: _356  and  _359
REMARK  147  A    between atoms: _359  and  _360
REMARK  148  A    between atoms: _365  and  _367
REMARK  149  A    between atoms: _367  and  _368
REMARK  150  A    between atoms: _367  and  _370
REMARK  151  A    between atoms: _370  and  _371
REMARK  152  A    between atoms: _377  and  _379
REMARK  153  A    between atoms: _379  and  _380
REMARK  154  A    between atoms: _379  and  _382
REMARK  155  A    between atoms: _382  and  _383
REMARK  156  A    between atoms: _383  and  _384
REMARK  157  A    between atoms: _389  and  _391
REMARK  158  A    between atoms: _391  and  _392
REMARK  159  A    between atoms: _394  and  _396
REMARK  160  A    between atoms: _396  and  _397
REMARK  161  A    between atoms: _396  and  _399
REMARK  162  A    between atoms: _399  and  _400
REMARK  163  A    between atoms: _403  and  _405
REMARK  164  A    between atoms: _405  and  _406
REMARK  165  A    between atoms: _405  and  _408
REMARK  166  A    between atoms: _408  and  _409
REMARK  167  A    between atoms: _412  and  _414
REMARK  168  A    between atoms: _414  and  _415
REMARK  169  A    between atoms: _414  and  _417
REMARK  170  A    between atoms: _417  and  _418
REMARK  171  A    between atoms: _423  and  _424
REMARK  172  A    between atoms: _426  and  _428
REMARK  173  A    between atoms: _428  and  _429
REMARK  174  A    between atoms: _428  and  _431
REMARK  175  A    between atoms: _434  and  _436
REMARK  176  A    between atoms: _436  and  _437
REMARK  177  A    between atoms: _440  and  _442
REMARK  178  A    between atoms: _442  and  _443
REMARK  179  A    between atoms: _442  and  _445
REMARK  180  A    between atoms: _445  and  _446
REMARK  181  A    between atoms: _449  and  _451
REMARK  182  A    between atoms: _451  and  _452
REMARK  183  A    between atoms: _451  and  _454
REMARK  184  A    between atoms: _454  and  _455
REMARK  185  A    between atoms: _455  and  _456
REMARK  186  A    between atoms: _459  and  _461
REMARK  187  A    between atoms: _461  and  _462
REMARK  188  A    between atoms: _461  and  _464
REMARK  189  A    between atoms: _464  and  _465
REMARK  190  A    between atoms: _468  and  _470
REMARK  191  A    between atoms: _470  and  _471
REMARK  192  A    between atoms: _470  and  _473
REMARK  193  A    between atoms: _473  and  _474
REMARK  194  A    between atoms: _479  and  _481
REMARK  195  A    between atoms: _481  and  _482
REMARK  196  A    between atoms: _484  and  _486
REMARK  197  A    between atoms: _486  and  _487
REMARK  198  A    between atoms: _490  and  _492
REMARK  199  A    between atoms: _492  and  _493
REMARK  200  A    between atoms: _492  and  _495
REMARK  201  A    between atoms: _495  and  _496
REMARK  202  A    between atoms: _501  and  _503
REMARK  203  A    between atoms: _503  and  _504
REMARK  204  A    between atoms: _503  and  _506
REMARK  205  A    between atoms: _506  and  _507
REMARK  206  A    between atoms: _510  and  _512
REMARK  207  A    between atoms: _512  and  _513
REMARK  208  A    between atoms: _512  and  _515
REMARK  209  A    between atoms: _515  and  _516
REMARK  210  A    between atoms: _519  and  _521
REMARK  211  A    between atoms: _521  and  _522
REMARK  212  A    between atoms: _521  and  _524
REMARK  213  A    between atoms: _524  and  _525
REMARK  214  A    between atoms: _525  and  _526
REMARK  215  A    between atoms: _526  and  _527
REMARK  216  A    between atoms: _536  and  _538
REMARK  217  A    between atoms: _538  and  _539
REMARK  218  A    between atoms: _538  and  _541
REMARK  219  A    between atoms: _541  and  _542
REMARK  220  A    between atoms: _547  and  _549
REMARK  221  A    between atoms: _549  and  _550
REMARK  222  A    between atoms: _549  and  _552
REMARK  223  A    between atoms: _552  and  _553
REMARK  224  A    between atoms: _553  and  _554
REMARK  225  A    between atoms: _557  and  _559
REMARK  226  A    between atoms: _559  and  _560
REMARK  227  A    between atoms: _563  and  _565
REMARK  228  A    between atoms: _565  and  _566
REMARK  229  A    between atoms: _565  and  _568
REMARK  230  A    between atoms: _571  and  _573
REMARK  231  A    between atoms: _573  and  _574
REMARK  232  A    between atoms: _573  and  _576
REMARK  233  A    between atoms: _576  and  _577
REMARK  234  A    between atoms: _580  and  _582
REMARK  235  A    between atoms: _582  and  _583
REMARK  236  A    between atoms: _586  and  _588
REMARK  237  A    between atoms: _588  and  _589
REMARK  238  A    between atoms: _591  and  _593
REMARK  239  A    between atoms: _593  and  _594
REMARK  240  A    between atoms: _596  and  _598
REMARK  241  A    between atoms: _598  and  _599
REMARK  242  A    between atoms: _601  and  _603
REMARK  243  A    between atoms: _603  and  _604
REMARK  244  A    between atoms: _603  and  _606
REMARK  245  A    between atoms: _606  and  _607
REMARK  246  A    between atoms: _613  and  _615
REMARK  247  A    between atoms: _615  and  _616
REMARK  248  A    between atoms: _615  and  _618
REMARK  249  A    between atoms: _618  and  _619
REMARK  250  A    between atoms: _622  and  _624
REMARK  251  A    between atoms: _624  and  _625
REMARK  252  A    between atoms: _624  and  _627
REMARK  253  A    between atoms: _627  and  _628
REMARK  254  A    between atoms: _633  and  _635
REMARK  255  A    between atoms: _635  and  _636
REMARK  256  A    between atoms: _639  and  _641
REMARK  257  A    between atoms: _641  and  _642
REMARK  258  A    between atoms: _641  and  _644
REMARK  259  A    between atoms: _644  and  _645
REMARK  260  A    between atoms: _648  and  _650
REMARK  261  A    between atoms: _650  and  _651
REMARK  262  A    between atoms: _650  and  _653
REMARK  263  A    between atoms: _653  and  _654
REMARK  264  A    between atoms: _654  and  _655
REMARK  265  A    between atoms: _660  and  _662
REMARK  266  A    between atoms: _662  and  _663
REMARK  267  A    between atoms: _662  and  _665
REMARK  268  A    between atoms: _665  and  _666
REMARK                            x       y       z     vdW  Elec       q    Type
REMARK                         _______ _______ _______ _____ _____    ______ ____
ROOT
ATOM      1  CA  THR A   1     -53.989  16.673   9.482  0.00  0.00    +0.160 C 
ENDROOT
BRANCH   1   2
ATOM      2  N   THR A   1     -55.100  15.792   9.124  0.00  0.00    -0.237 NA
ATOM      3  H   THR A   1     -55.532  15.854   8.180  0.00  0.00    +0.142 HD
ENDBRANCH   1   2
BRANCH   1   4
ATOM      4  C   THR A   1     -54.376  17.630  10.642  0.00  0.00    +0.227 C 
ATOM      5  O   THR A   1     -53.678  17.704  11.657  0.00  0.00    -0.287 OA
ENDBRANCH   1   4
BRANCH   1   6
ATOM      6  CB  THR A   1     -53.423  17.303   8.217  0.00  0.00    +0.134 C 
ATOM      7  CG2 THR A   1     -52.208  18.136   8.516  0.00  0.00    +0.034 C 
BRANCH   6   8
ATOM      8  OG1 THR A   1     -53.052  16.226   7.328  0.00  0.00    -0.383 OA
ATOM      9  HG1 THR A   1     -52.679  16.603   6.492  0.00  0.00    +0.210 HD
ENDBRANCH   6   8
ENDBRANCH   1   6
TORSDOF 4
REMARK  Name = ../refined-set-2016/3d7k/3d7k_pocket.pdb
REMARK  268 active torsions:
REMARK  status: ('A' for Active; 'I' for Inactive)
REMARK    1  A    between atoms: _1  and  _3
REMARK    2  A    between atoms: _3  and  _4
REMARK    3  A    between atoms: _3  and  _6
REMARK    4  A    between atoms: _6  and  _7
REMARK    5  A    between atoms: _10  and  _12
REMARK    6  A    between atoms: _12  and  _13
REMARK    7  A    between atoms: _12  and  _15
REMARK    8  A    between atoms: _15  and  _16
REMARK    9  A    between atoms: _20  and  _21
REMARK   10  A    between atoms: _26  and  _28
REMARK   11  A    between atoms: _28  and  _29
REMARK   12  A    between atoms: _28  and  _31
REMARK   13  A    between atoms: _31  and  _32
REMARK   14  A    between atoms: _35  and  _37
REMARK   15  A    between atoms: _37  and  _38
REMARK   16  A    between atoms: _40  and  _42
REMARK   17  A    between atoms: _42  and  _43
REMARK   18  A    between atoms: _46  and  _48
REMARK   19  A    between atoms: _48  and  _49
REMARK   20  A    between atoms: _48  and  _51
REMARK   21  A    between atoms: _51  and  _52
REMARK   22  A    between atoms: _55  and  _57
REMARK   23  A    between atoms: _57  and  _58
REMARK   24  A    between atoms: _57  and  _60
REMARK   25  A    between atoms: _60  and  _61
REMARK   26  A    between atoms: _64  and  _66
REMARK   27  A    between atoms: _66  and  _67
REMARK   28  A    between atoms: _66  and  _69
REMARK   29  A    between atoms: _69  and  _70
REMARK   30  A    between atoms: _75  and  _76
REMARK   31  A    between atoms: _78  and  _80
REMARK   32  A    between atoms: _80  and  _81
REMARK   33  A    between atoms: _80  and  _83
REMARK   34  A    between atoms: _83  and  _84
REMARK   35  A    between atoms: _87  and  _89
REMARK   36  A    between atoms: _89  and  _90
REMARK   37  A    between atoms: _89  and  _92
REMARK   38  A    between atoms: _92  and  _93
REMARK   39  A    between atoms: _103  and  _105
REMARK   40  A    between atoms: _105  and  _106
REMARK   41  A    between atoms: _105  and  _108
REMARK   42  A    between atoms: _108  and  _109
REMARK   43  A    between atoms: _112  and  _114
REMARK   44  A    between atoms: _114  and  _115
REMARK   45  A    between atoms: _114  and  _117
REMARK   46  A    between atoms: _117  and  _118
REMARK   47  A    between atoms: _123  and  _125
REMARK   48  A    between atoms: _125  and  _126
REMARK   49  A    between atoms: _128  and  _130
REMARK   50  A    between atoms: _130  and  _131
REMARK   51  A    between atoms: _130  and  _133
REMARK   52  A    between atoms: _133  and  _134
REMARK   53  A    between atoms: _139  and  _140
REMARK   54  A    between atoms: _142  and  _144
REMARK   55  A    between atoms: _144  and  _145
REMARK   56  A    between atoms: _144  and  _147
REMARK   57  A    between atoms: _147  and  _148
REMARK   58  A    between atoms: _151  and  _153
REMARK   59  A    between atoms: _153  and  _154
REMARK   60  A    between atoms: _156  and  _158
REMARK   61  A    between atoms: _158  and  _159
REMARK   62  A    between atoms: _158  and  _161
REMARK   63  A    between atoms: _161  and  _162
REMARK   64  A    between atoms: _164  and  _166
REMARK   65  A    between atoms: _166  and  _167
REMARK   66  A    between atoms: _166  and  _169
REMARK   67  A    between atoms: _169  and  _170
REMARK   68  A    between atoms: _170  and  _171
REMARK   69  A    between atoms: _173  and  _175
REMARK   70  A    between atoms: _175  and  _176
REMARK   71  A    between atoms: _178  and  _180
REMARK   72  A    between atoms: _180  and  _181
REMARK   73  A    between atoms: _180  and  _183
REMARK   74  A    between atoms: _186  and  _188
REMARK   75  A    between atoms: _188  and  _189
REMARK   76  A    between atoms: _188  and  _191
REMARK   77  A    between atoms: _191  and  _192
REMARK   78  A    between atoms: _195  and  _197
REMARK   79  A    between atoms: _197  and  _198
REMARK   80  A    between atoms: _200  and  _202
REMARK   81  A    between atoms: _202  and  _203
REMARK   82  A    between atoms: _202  and  _205
REMARK   83  A    between atoms: _205  and  _206
REMARK   84  A    between atoms: _206  and  _207
REMARK   85  A    between atoms: _207  and  CA_676
REMARK   86  A    between atoms: _209  and  _211
REMARK   87  A    between atoms: _211  and  _212
REMARK   88  A    between atoms: _214  and  _216
REMARK   89  A    between atoms: _216  and  _217
REMARK   90  A    between atoms: _216  and  _219
REMARK   91  A    between atoms: _219  and  _220
REMARK   92  A    between atoms: _222  and  _224
REMARK   93  A    between atoms: _224  and  _225
REMARK   94  A    between atoms: _224  and  _227
REMARK   95  A    between atoms: _230  and  _232
REMARK   96  A    between atoms: _232  and  _233
REMARK   97  A    between atoms: _235  and  _237
REMARK   98  A    between atoms: _237  and  _238
REMARK   99  A    between atoms: _237  and  _240
REMARK  100  A    between atoms: _240  and  _241
REMARK  101  A    between atoms: _246  and  _247
REMARK  102  A    between atoms: _249  and  _251
REMARK  103  A    between atoms: _251  and  _252
REMARK  104  A    between atoms: _251  and  _254
REMARK  105  A    between atoms: _254  and  _255
REMARK  106  A    between atoms: _258  and  _260
REMARK  107  A    between atoms: _260  and  _261
REMARK  108  A    between atoms: _260  and  _263
REMARK  109  A    between atoms: _263  and  _264
REMARK  110  A    between atoms: _264  and  _265
REMARK  111  A    between atoms: _267  and  _269
REMARK  112  A    between atoms: _269  and  _270
REMARK  113  A    between atoms: _269  and  _272
REMARK  114  A    between atoms: _272  and  _273
REMARK  115  A    between atoms: _278  and  _280
REMARK  116  A    between atoms: _280  and  _281
REMARK  117  A    between atoms: _280  and  _283
REMARK  118  A    between atoms: _283  and  _284
REMARK  119  A    between atoms: _289  and  _291
REMARK  120  A    between atoms: _291  and  _292
REMARK  121  A    between atoms: _291  and  _294
REMARK  122  A    between atoms: _294  and  _295
REMARK  123  A    between atoms: _295  and  _296
REMARK  124  A    between atoms: _301  and  _303
REMARK  125  A    between atoms: _303  and  _304
REMARK  126  A    between atoms: _303  and  _306
REMARK  127  A    between atoms: _306  and  _307
REMARK  128  A    between atoms: _309  and  _311
REMARK  129  A    between atoms: _311  and  _312
REMARK  130  A    between atoms: _311  and  _314
REMARK  131  A    between atoms: _314  and  _315
REMARK  132  A    between atoms: _325  and  _327
REMARK  133  A    between atoms: _327  and  _328
REMARK  134  A    between atoms: _330  and  _332
REMARK  135  A    between atoms: _332  and  _333
REMARK  136  A    between atoms: _336  and  _338
REMARK  137  A    between atoms: _338  and  _339
REMARK  138  A    between atoms: _338  and  _341
REMARK  139  A    between atoms: _341  and  _342
REMARK  140  A    between atoms: _345  and  _347
REMARK  141  A    between atoms: _347  and  _348
REMARK  142  A    between atoms: _347  and  _350
REMARK  143  A    between atoms: _350  and  _351
REMARK  144  A    between atoms: _354  and  _356
REMARK  145  A    between atoms: _356  and  _357
REMARK  146  A    between atoms: _356  and  _359
REMARK  147  A    between atoms: _359  and  _360
REMARK  148  A    between atoms: _365  and  _367
REMARK  149  A    between atoms: _367  and  _368
REMARK  150  A    between atoms: _367  and  _370
REMARK  151  A    between atoms: _370  and  _371
REMARK  152  A    between atoms: _377  and  _379
REMARK  153  A    between atoms: _379  and  _380
REMARK  154  A    between atoms: _379  and  _382
REMARK  155  A    between atoms: _382  and  _383
REMARK  156  A    between atoms: _383  and  _384
REMARK  157  A    between atoms: _389  and  _391
REMARK  158  A    between atoms: _391  and  _392
REMARK  159  A    between atoms: _394  and  _396
REMARK  160  A    between atoms: _396  and  _397
REMARK  161  A    between atoms: _396  and  _399
REMARK  162  A    between atoms: _399  and  _400
REMARK  163  A    between atoms: _403  and  _405
REMARK  164  A    between atoms: _405  and  _406
REMARK  165  A    between atoms: _405  and  _408
REMARK  166  A    between atoms: _408  and  _409
REMARK  167  A    between atoms: _412  and  _414
REMARK  168  A    between atoms: _414  and  _415
REMARK  169  A    between atoms: _414  and  _417
REMARK  170  A    between atoms: _417  and  _418
REMARK  171  A    between atoms: _423  and  _424
REMARK  172  A    between atoms: _426  and  _428
REMARK  173  A    between atoms: _428  and  _429
REMARK  174  A    between atoms: _428  and  _431
REMARK  175  A    between atoms: _434  and  _436
REMARK  176  A    between atoms: _436  and  _437
REMARK  177  A    between atoms: _440  and  _442
REMARK  178  A    between atoms: _442  and  _443
REMARK  179  A    between atoms: _442  and  _445
REMARK  180  A    between atoms: _445  and  _446
REMARK  181  A    between atoms: _449  and  _451
REMARK  182  A    between atoms: _451  and  _452
REMARK  183  A    between atoms: _451  and  _454
REMARK  184  A    between atoms: _454  and  _455
REMARK  185  A    between atoms: _455  and  _456
REMARK  186  A    between atoms: _459  and  _461
REMARK  187  A    between atoms: _461  and  _462
REMARK  188  A    between atoms: _461  and  _464
REMARK  189  A    between atoms: _464  and  _465
REMARK  190  A    between atoms: _468  and  _470
REMARK  191  A    between atoms: _470  and  _471
REMARK  192  A    between atoms: _470  and  _473
REMARK  193  A    between atoms: _473  and  _474
REMARK  194  A    between atoms: _479  and  _481
REMARK  195  A    between atoms: _481  and  _482
REMARK  196  A    between atoms: _484  and  _486
REMARK  197  A    between atoms: _486  and  _487
REMARK  198  A    between atoms: _490  and  _492
REMARK  199  A    between atoms: _492  and  _493
REMARK  200  A    between atoms: _492  and  _495
REMARK  201  A    between atoms: _495  and  _496
REMARK  202  A    between atoms: _501  and  _503
REMARK  203  A    between atoms: _503  and  _504
REMARK  204  A    between atoms: _503  and  _506
REMARK  205  A    between atoms: _506  and  _507
REMARK  206  A    between atoms: _510  and  _512
REMARK  207  A    between atoms: _512  and  _513
REMARK  208  A    between atoms: _512  and  _515
REMARK  209  A    between atoms: _515  and  _516
REMARK  210  A    between atoms: _519  and  _521
REMARK  211  A    between atoms: _521  and  _522
REMARK  212  A    between atoms: _521  and  _524
REMARK  213  A    between atoms: _524  and  _525
REMARK  214  A    between atoms: _525  and  _526
REMARK  215  A    between atoms: _526  and  _527
REMARK  216  A    between atoms: _536  and  _538
REMARK  217  A    between atoms: _538  and  _539
REMARK  218  A    between atoms: _538  and  _541
REMARK  219  A    between atoms: _541  and  _542
REMARK  220  A    between atoms: _547  and  _549
REMARK  221  A    between atoms: _549  and  _550
REMARK  222  A    between atoms: _549  and  _552
REMARK  223  A    between atoms: _552  and  _553
REMARK  224  A    between atoms: _553  and  _554
REMARK  225  A    between atoms: _557  and  _559
REMARK  226  A    between atoms: _559  and  _560
REMARK  227  A    between atoms: _563  and  _565
REMARK  228  A    between atoms: _565  and  _566
REMARK  229  A    between atoms: _565  and  _568
REMARK  230  A    between atoms: _571  and  _573
REMARK  231  A    between atoms: _573  and  _574
REMARK  232  A    between atoms: _573  and  _576
REMARK  233  A    between atoms: _576  and  _577
REMARK  234  A    between atoms: _580  and  _582
REMARK  235  A    between atoms: _582  and  _583
REMARK  236  A    between atoms: _586  and  _588
REMARK  237  A    between atoms: _588  and  _589
REMARK  238  A    between atoms: _591  and  _593
REMARK  239  A    between atoms: _593  and  _594
REMARK  240  A    between atoms: _596  and  _598
REMARK  241  A    between atoms: _598  and  _599
REMARK  242  A    between atoms: _601  and  _603
REMARK  243  A    between atoms: _603  and  _604
REMARK  244  A    between atoms: _603  and  _606
REMARK  245  A    between atoms: _606  and  _607
REMARK  246  A    between atoms: _613  and  _615
REMARK  247  A    between atoms: _615  and  _616
REMARK  248  A    between atoms: _615  and  _618
REMARK  249  A    between atoms: _618  and  _619
REMARK  250  A    between atoms: _622  and  _624
REMARK  251  A    between atoms: _624  and  _625
REMARK  252  A    between atoms: _624  and  _627
REMARK  253  A    between atoms: _627  and  _628
REMARK  254  A    between atoms: _633  and  _635
REMARK  255  A    between atoms: _635  and  _636
REMARK  256  A    between atoms: _639  and  _641
REMARK  257  A    between atoms: _641  and  _642
REMARK  258  A    between atoms: _641  and  _644
REMARK  259  A    between atoms: _644  and  _645
REMARK  260  A    between atoms: _648  and  _650
REMARK  261  A    between atoms: _650  and  _651
REMARK  262  A    between atoms: _650  and  _653
REMARK  263  A    between atoms: _653  and  _654
REMARK  264  A    between atoms: _654  and  _655
REMARK  265  A    between atoms: _660  and  _662
REMARK  266  A    between atoms: _662  and  _663
REMARK  267  A    between atoms: _662  and  _665
REMARK  268  A    between atoms: _665  and  _666
REMARK                            x       y       z     vdW  Elec       q    Type
REMARK                         _______ _______ _______ _____ _____    ______ ____
ROOT
ATOM      1  CA  LEU A   1     -38.512  20.725  20.546  0.00  0.00    +0.133 C 
ENDROOT
BRANCH   1   2
ATOM      2  N   LEU A   1     -38.986  19.863  21.624  0.00  0.00    -0.239 NA
ATOM      3  H   LEU A   1     -39.761  19.197  21.430  0.00  0.00    +0.142 HD
ENDBRANCH   1   2
BRANCH   1   4
ATOM      4  C   LEU A   1     -38.388  22.207  20.967  0.00  0.00    +0.224 C 
ATOM      5  O   LEU A   1     -37.277  22.774  20.986  0.00  0.00    -0.287 OA
ENDBRANCH   1   4
BRANCH   1   6
ATOM      6  CB  LEU A   1     -39.383  20.546  19.290  0.00  0.00    +0.025 C 
BRANCH   6   7
ATOM      7  CG  LEU A   1     -39.104  21.459  18.093  0.00  0.00    +0.002 C 
ATOM      8  CD2 LEU A   1     -37.884  20.956  17.297  0.00  0.00    +0.000 C 
ATOM      9  CD1 LEU A   1     -40.356  21.596  17.209  0.00  0.00    +0.000 C 
ENDBRANCH   6   7
ENDBRANCH   1   6
TORSDOF 4
REMARK  Name = ../refined-set-2016/3d7k/3d7k_pocket.pdb
REMARK  268 active torsions:
REMARK  status: ('A' for Active; 'I' for Inactive)
REMARK    1  A    between atoms: _1  and  _3
REMARK    2  A    between atoms: _3  and  _4
REMARK    3  A    between atoms: _3  and  _6
REMARK    4  A    between atoms: _6  and  _7
REMARK    5  A    between atoms: _10  and  _12
REMARK    6  A    between atoms: _12  and  _13
REMARK    7  A    between atoms: _12  and  _15
REMARK    8  A    between atoms: _15  and  _16
REMARK    9  A    between atoms: _20  and  _21
REMARK   10  A    between atoms: _26  and  _28
REMARK   11  A    between atoms: _28  and  _29
REMARK   12  A    between atoms: _28  and  _31
REMARK   13  A    between atoms: _31  and  _32
REMARK   14  A    between atoms: _35  and  _37
REMARK   15  A    between atoms: _37  and  _38
REMARK   16  A    between atoms: _40  and  _42
REMARK   17  A    between atoms: _42  and  _43
REMARK   18  A    between atoms: _46  and  _48
REMARK   19  A    between atoms: _48  and  _49
REMARK   20  A    between atoms: _48  and  _51
REMARK   21  A    between atoms: _51  and  _52
REMARK   22  A    between atoms: _55  and  _57
REMARK   23  A    between atoms: _57  and  _58
REMARK   24  A    between atoms: _57  and  _60
REMARK   25  A    between atoms: _60  and  _61
REMARK   26  A    between atoms: _64  and  _66
REMARK   27  A    between atoms: _66  and  _67
REMARK   28  A    between atoms: _66  and  _69
REMARK   29  A    between atoms: _69  and  _70
REMARK   30  A    between atoms: _75  and  _76
REMARK   31  A    between atoms: _78  and  _80
REMARK   32  A    between atoms: _80  and  _81
REMARK   33  A    between atoms: _80  and  _83
REMARK   34  A    between atoms: _83  and  _84
REMARK   35  A    between atoms: _87  and  _89
REMARK   36  A    between atoms: _89  and  _90
REMARK   37  A    between atoms: _89  and  _92
REMARK   38  A    between atoms: _92  and  _93
REMARK   39  A    between atoms: _103  and  _105
REMARK   40  A    between atoms: _105  and  _106
REMARK   41  A    between atoms: _105  and  _108
REMARK   42  A    between atoms: _108  and  _109
REMARK   43  A    between atoms: _112  and  _114
REMARK   44  A    between atoms: _114  and  _115
REMARK   45  A    between atoms: _114  and  _117
REMARK   46  A    between atoms: _117  and  _118
REMARK   47  A    between atoms: _123  and  _125
REMARK   48  A    between atoms: _125  and  _126
REMARK   49  A    between atoms: _128  and  _130
REMARK   50  A    between atoms: _130  and  _131
REMARK   51  A    between atoms: _130  and  _133
REMARK   52  A    between atoms: _133  and  _134
REMARK   53  A    between atoms: _139  and  _140
REMARK   54  A    between atoms: _142  and  _144
REMARK   55  A    between atoms: _144  and  _145
REMARK   56  A    between atoms: _144  and  _147
REMARK   57  A    between atoms: _147  and  _148
REMARK   58  A    between atoms: _151  and  _153
REMARK   59  A    between atoms: _153  and  _154
REMARK   60  A    between atoms: _156  and  _158
REMARK   61  A    between atoms: _158  and  _159
REMARK   62  A    between atoms: _158  and  _161
REMARK   63  A    between atoms: _161  and  _162
REMARK   64  A    between atoms: _164  and  _166
REMARK   65  A    between atoms: _166  and  _167
REMARK   66  A    between atoms: _166  and  _169
REMARK   67  A    between atoms: _169  and  _170
REMARK   68  A    between atoms: _170  and  _171
REMARK   69  A    between atoms: _173  and  _175
REMARK   70  A    between atoms: _175  and  _176
REMARK   71  A    between atoms: _178  and  _180
REMARK   72  A    between atoms: _180  and  _181
REMARK   73  A    between atoms: _180  and  _183
REMARK   74  A    between atoms: _186  and  _188
REMARK   75  A    between atoms: _188  and  _189
REMARK   76  A    between atoms: _188  and  _191
REMARK   77  A    between atoms: _191  and  _192
REMARK   78  A    between atoms: _195  and  _197
REMARK   79  A    between atoms: _197  and  _198
REMARK   80  A    between atoms: _200  and  _202
REMARK   81  A    between atoms: _202  and  _203
REMARK   82  A    between atoms: _202  and  _205
REMARK   83  A    between atoms: _205  and  _206
REMARK   84  A    between atoms: _206  and  _207
REMARK   85  A    between atoms: _207  and  CA_676
REMARK   86  A    between atoms: _209  and  _211
REMARK   87  A    between atoms: _211  and  _212
REMARK   88  A    between atoms: _214  and  _216
REMARK   89  A    between atoms: _216  and  _217
REMARK   90  A    between atoms: _216  and  _219
REMARK   91  A    between atoms: _219  and  _220
REMARK   92  A    between atoms: _222  and  _224
REMARK   93  A    between atoms: _224  and  _225
REMARK   94  A    between atoms: _224  and  _227
REMARK   95  A    between atoms: _230  and  _232
REMARK   96  A    between atoms: _232  and  _233
REMARK   97  A    between atoms: _235  and  _237
REMARK   98  A    between atoms: _237  and  _238
REMARK   99  A    between atoms: _237  and  _240
REMARK  100  A    between atoms: _240  and  _241
REMARK  101  A    between atoms: _246  and  _247
REMARK  102  A    between atoms: _249  and  _251
REMARK  103  A    between atoms: _251  and  _252
REMARK  104  A    between atoms: _251  and  _254
REMARK  105  A    between atoms: _254  and  _255
REMARK  106  A    between atoms: _258  and  _260
REMARK  107  A    between atoms: _260  and  _261
REMARK  108  A    between atoms: _260  and  _263
REMARK  109  A    between atoms: _263  and  _264
REMARK  110  A    between atoms: _264  and  _265
REMARK  111  A    between atoms: _267  and  _269
REMARK  112  A    between atoms: _269  and  _270
REMARK  113  A    between atoms: _269  and  _272
REMARK  114  A    between atoms: _272  and  _273
REMARK  115  A    between atoms: _278  and  _280
REMARK  116  A    between atoms: _280  and  _281
REMARK  117  A    between atoms: _280  and  _283
REMARK  118  A    between atoms: _283  and  _284
REMARK  119  A    between atoms: _289  and  _291
REMARK  120  A    between atoms: _291  and  _292
REMARK  121  A    between atoms: _291  and  _294
REMARK  122  A    between atoms: _294  and  _295
REMARK  123  A    between atoms: _295  and  _296
REMARK  124  A    between atoms: _301  and  _303
REMARK  125  A    between atoms: _303  and  _304
REMARK  126  A    between atoms: _303  and  _306
REMARK  127  A    between atoms: _306  and  _307
REMARK  128  A    between atoms: _309  and  _311
REMARK  129  A    between atoms: _311  and  _312
REMARK  130  A    between atoms: _311  and  _314
REMARK  131  A    between atoms: _314  and  _315
REMARK  132  A    between atoms: _325  and  _327
REMARK  133  A    between atoms: _327  and  _328
REMARK  134  A    between atoms: _330  and  _332
REMARK  135  A    between atoms: _332  and  _333
REMARK  136  A    between atoms: _336  and  _338
REMARK  137  A    between atoms: _338  and  _339
REMARK  138  A    between atoms: _338  and  _341
REMARK  139  A    between atoms: _341  and  _342
REMARK  140  A    between atoms: _345  and  _347
REMARK  141  A    between atoms: _347  and  _348
REMARK  142  A    between atoms: _347  and  _350
REMARK  143  A    between atoms: _350  and  _351
REMARK  144  A    between atoms: _354  and  _356
REMARK  145  A    between atoms: _356  and  _357
REMARK  146  A    between atoms: _356  and  _359
REMARK  147  A    between atoms: _359  and  _360
REMARK  148  A    between atoms: _365  and  _367
REMARK  149  A    between atoms: _367  and  _368
REMARK  150  A    between atoms: _367  and  _370
REMARK  151  A    between atoms: _370  and  _371
REMARK  152  A    between atoms: _377  and  _379
REMARK  153  A    between atoms: _379  and  _380
REMARK  154  A    between atoms: _379  and  _382
REMARK  155  A    between atoms: _382  and  _383
REMARK  156  A    between atoms: _383  and  _384
REMARK  157  A    between atoms: _389  and  _391
REMARK  158  A    between atoms: _391  and  _392
REMARK  159  A    between atoms: _394  and  _396
REMARK  160  A    between atoms: _396  and  _397
REMARK  161  A    between atoms: _396  and  _399
REMARK  162  A    between atoms: _399  and  _400
REMARK  163  A    between atoms: _403  and  _405
REMARK  164  A    between atoms: _405  and  _406
REMARK  165  A    between atoms: _405  and  _408
REMARK  166  A    between atoms: _408  and  _409
REMARK  167  A    between atoms: _412  and  _414
REMARK  168  A    between atoms: _414  and  _415
REMARK  169  A    between atoms: _414  and  _417
REMARK  170  A    between atoms: _417  and  _418
REMARK  171  A    between atoms: _423  and  _424
REMARK  172  A    between atoms: _426  and  _428
REMARK  173  A    between atoms: _428  and  _429
REMARK  174  A    between atoms: _428  and  _431
REMARK  175  A    between atoms: _434  and  _436
REMARK  176  A    between atoms: _436  and  _437
REMARK  177  A    between atoms: _440  and  _442
REMARK  178  A    between atoms: _442  and  _443
REMARK  179  A    between atoms: _442  and  _445
REMARK  180  A    between atoms: _445  and  _446
REMARK  181  A    between atoms: _449  and  _451
REMARK  182  A    between atoms: _451  and  _452
REMARK  183  A    between atoms: _451  and  _454
REMARK  184  A    between atoms: _454  and  _455
REMARK  185  A    between atoms: _455  and  _456
REMARK  186  A    between atoms: _459  and  _461
REMARK  187  A    between atoms: _461  and  _462
REMARK  188  A    between atoms: _461  and  _464
REMARK  189  A    between atoms: _464  and  _465
REMARK  190  A    between atoms: _468  and  _470
REMARK  191  A    between atoms: _470  and  _471
REMARK  192  A    between atoms: _470  and  _473
REMARK  193  A    between atoms: _473  and  _474
REMARK  194  A    between atoms: _479  and  _481
REMARK  195  A    between atoms: _481  and  _482
REMARK  196  A    between atoms: _484  and  _486
REMARK  197  A    between atoms: _486  and  _487
REMARK  198  A    between atoms: _490  and  _492
REMARK  199  A    between atoms: _492  and  _493
REMARK  200  A    between atoms: _492  and  _495
REMARK  201  A    between atoms: _495  and  _496
REMARK  202  A    between atoms: _501  and  _503
REMARK  203  A    between atoms: _503  and  _504
REMARK  204  A    between atoms: _503  and  _506
REMARK  205  A    between atoms: _506  and  _507
REMARK  206  A    between atoms: _510  and  _512
REMARK  207  A    between atoms: _512  and  _513
REMARK  208  A    between atoms: _512  and  _515
REMARK  209  A    between atoms: _515  and  _516
REMARK  210  A    between atoms: _519  and  _521
REMARK  211  A    between atoms: _521  and  _522
REMARK  212  A    between atoms: _521  and  _524
REMARK  213  A    between atoms: _524  and  _525
REMARK  214  A    between atoms: _525  and  _526
REMARK  215  A    between atoms: _526  and  _527
REMARK  216  A    between atoms: _536  and  _538
REMARK  217  A    between atoms: _538  and  _539
REMARK  218  A    between atoms: _538  and  _541
REMARK  219  A    between atoms: _541  and  _542
REMARK  220  A    between atoms: _547  and  _549
REMARK  221  A    between atoms: _549  and  _550
REMARK  222  A    between atoms: _549  and  _552
REMARK  223  A    between atoms: _552  and  _553
REMARK  224  A    between atoms: _553  and  _554
REMARK  225  A    between atoms: _557  and  _559
REMARK  226  A    between atoms: _559  and  _560
REMARK  227  A    between atoms: _563  and  _565
REMARK  228  A    between atoms: _565  and  _566
REMARK  229  A    between atoms: _565  and  _568
REMARK  230  A    between atoms: _571  and  _573
REMARK  231  A    between atoms: _573  and  _574
REMARK  232  A    between atoms: _573  and  _576
REMARK  233  A    between atoms: _576  and  _577
REMARK  234  A    between atoms: _580  and  _582
REMARK  235  A    between atoms: _582  and  _583
REMARK  236  A    between atoms: _586  and  _588
REMARK  237  A    between atoms: _588  and  _589
REMARK  238  A    between atoms: _591  and  _593
REMARK  239  A    between atoms: _593  and  _594
REMARK  240  A    between atoms: _596  and  _598
REMARK  241  A    between atoms: _598  and  _599
REMARK  242  A    between atoms: _601  and  _603
REMARK  243  A    between atoms: _603  and  _604
REMARK  244  A    between atoms: _603  and  _606
REMARK  245  A    between atoms: _606  and  _607
REMARK  246  A    between atoms: _613  and  _615
REMARK  247  A    between atoms: _615  and  _616
REMARK  248  A    between atoms: _615  and  _618
REMARK  249  A    between atoms: _618  and  _619
REMARK  250  A    between atoms: _622  and  _624
REMARK  251  A    between atoms: _624  and  _625
REMARK  252  A    between atoms: _624  and  _627
REMARK  253  A    between atoms: _627  and  _628
REMARK  254  A    between atoms: _633  and  _635
REMARK  255  A    between atoms: _635  and  _636
REMARK  256  A    between atoms: _639  and  _641
REMARK  257  A    between atoms: _641  and  _642
REMARK  258  A    between atoms: _641  and  _644
REMARK  259  A    between atoms: _644  and  _645
REMARK  260  A    between atoms: _648  and  _650
REMARK  261  A    between atoms: _650  and  _651
REMARK  262  A    between atoms: _650  and  _653
REMARK  263  A    between atoms: _653  and  _654
REMARK  264  A    between atoms: _654  and  _655
REMARK  265  A    between atoms: _660  and  _662
REMARK  266  A    between atoms: _662  and  _663
REMARK  267  A    between atoms: _662  and  _665
REMARK  268  A    between atoms: _665  and  _666
REMARK                            x       y       z     vdW  Elec       q    Type
REMARK                         _______ _______ _______ _____ _____    ______ ____
ROOT
ATOM      1  N   PRO A   1     -35.433  38.869   4.567  0.00  0.00    -0.212 NA
ATOM      2  CA  PRO A   1     -36.507  38.272   5.388  0.00  0.00    +0.137 C 
ATOM      3  CB  PRO A   1     -36.137  36.795   5.470  0.00  0.00    +0.027 C 
ATOM      4  CG  PRO A   1     -34.826  36.647   4.861  0.00  0.00    +0.021 C 
ATOM      5  CD  PRO A   1     -34.512  37.853   4.035  0.00  0.00    +0.089 C 
ENDROOT
BRANCH   2   6
ATOM      6  C   PRO A   1     -36.690  38.881   6.791  0.00  0.00    +0.224 C 
ATOM      7  O   PRO A   1     -37.821  38.924   7.296  0.00  0.00    -0.287 OA
ENDBRANCH   2   6
TORSDOF 1
REMARK  Name = ../refined-set-2016/3d7k/3d7k_pocket.pdb
REMARK  268 active torsions:
REMARK  status: ('A' for Active; 'I' for Inactive)
REMARK    1  A    between atoms: _1  and  _3
REMARK    2  A    between atoms: _3  and  _4
REMARK    3  A    between atoms: _3  and  _6
REMARK    4  A    between atoms: _6  and  _7
REMARK    5  A    between atoms: _10  and  _12
REMARK    6  A    between atoms: _12  and  _13
REMARK    7  A    between atoms: _12  and  _15
REMARK    8  A    between atoms: _15  and  _16
REMARK    9  A    between atoms: _20  and  _21
REMARK   10  A    between atoms: _26  and  _28
REMARK   11  A    between atoms: _28  and  _29
REMARK   12  A    between atoms: _28  and  _31
REMARK   13  A    between atoms: _31  and  _32
REMARK   14  A    between atoms: _35  and  _37
REMARK   15  A    between atoms: _37  and  _38
REMARK   16  A    between atoms: _40  and  _42
REMARK   17  A    between atoms: _42  and  _43
REMARK   18  A    between atoms: _46  and  _48
REMARK   19  A    between atoms: _48  and  _49
REMARK   20  A    between atoms: _48  and  _51
REMARK   21  A    between atoms: _51  and  _52
REMARK   22  A    between atoms: _55  and  _57
REMARK   23  A    between atoms: _57  and  _58
REMARK   24  A    between atoms: _57  and  _60
REMARK   25  A    between atoms: _60  and  _61
REMARK   26  A    between atoms: _64  and  _66
REMARK   27  A    between atoms: _66  and  _67
REMARK   28  A    between atoms: _66  and  _69
REMARK   29  A    between atoms: _69  and  _70
REMARK   30  A    between atoms: _75  and  _76
REMARK   31  A    between atoms: _78  and  _80
REMARK   32  A    between atoms: _80  and  _81
REMARK   33  A    between atoms: _80  and  _83
REMARK   34  A    between atoms: _83  and  _84
REMARK   35  A    between atoms: _87  and  _89
REMARK   36  A    between atoms: _89  and  _90
REMARK   37  A    between atoms: _89  and  _92
REMARK   38  A    between atoms: _92  and  _93
REMARK   39  A    between atoms: _103  and  _105
REMARK   40  A    between atoms: _105  and  _106
REMARK   41  A    between atoms: _105  and  _108
REMARK   42  A    between atoms: _108  and  _109
REMARK   43  A    between atoms: _112  and  _114
REMARK   44  A    between atoms: _114  and  _115
REMARK   45  A    between atoms: _114  and  _117
REMARK   46  A    between atoms: _117  and  _118
REMARK   47  A    between atoms: _123  and  _125
REMARK   48  A    between atoms: _125  and  _126
REMARK   49  A    between atoms: _128  and  _130
REMARK   50  A    between atoms: _130  and  _131
REMARK   51  A    between atoms: _130  and  _133
REMARK   52  A    between atoms: _133  and  _134
REMARK   53  A    between atoms: _139  and  _140
REMARK   54  A    between atoms: _142  and  _144
REMARK   55  A    between atoms: _144  and  _145
REMARK   56  A    between atoms: _144  and  _147
REMARK   57  A    between atoms: _147  and  _148
REMARK   58  A    between atoms: _151  and  _153
REMARK   59  A    between atoms: _153  and  _154
REMARK   60  A    between atoms: _156  and  _158
REMARK   61  A    between atoms: _158  and  _159
REMARK   62  A    between atoms: _158  and  _161
REMARK   63  A    between atoms: _161  and  _162
REMARK   64  A    between atoms: _164  and  _166
REMARK   65  A    between atoms: _166  and  _167
REMARK   66  A    between atoms: _166  and  _169
REMARK   67  A    between atoms: _169  and  _170
REMARK   68  A    between atoms: _170  and  _171
REMARK   69  A    between atoms: _173  and  _175
REMARK   70  A    between atoms: _175  and  _176
REMARK   71  A    between atoms: _178  and  _180
REMARK   72  A    between atoms: _180  and  _181
REMARK   73  A    between atoms: _180  and  _183
REMARK   74  A    between atoms: _186  and  _188
REMARK   75  A    between atoms: _188  and  _189
REMARK   76  A    between atoms: _188  and  _191
REMARK   77  A    between atoms: _191  and  _192
REMARK   78  A    between atoms: _195  and  _197
REMARK   79  A    between atoms: _197  and  _198
REMARK   80  A    between atoms: _200  and  _202
REMARK   81  A    between atoms: _202  and  _203
REMARK   82  A    between atoms: _202  and  _205
REMARK   83  A    between atoms: _205  and  _206
REMARK   84  A    between atoms: _206  and  _207
REMARK   85  A    between atoms: _207  and  CA_676
REMARK   86  A    between atoms: _209  and  _211
REMARK   87  A    between atoms: _211  and  _212
REMARK   88  A    between atoms: _214  and  _216
REMARK   89  A    between atoms: _216  and  _217
REMARK   90  A    between atoms: _216  and  _219
REMARK   91  A    between atoms: _219  and  _220
REMARK   92  A    between atoms: _222  and  _224
REMARK   93  A    between atoms: _224  and  _225
REMARK   94  A    between atoms: _224  and  _227
REMARK   95  A    between atoms: _230  and  _232
REMARK   96  A    between atoms: _232  and  _233
REMARK   97  A    between atoms: _235  and  _237
REMARK   98  A    between atoms: _237  and  _238
REMARK   99  A    between atoms: _237  and  _240
REMARK  100  A    between atoms: _240  and  _241
REMARK  101  A    between atoms: _246  and  _247
REMARK  102  A    between atoms: _249  and  _251
REMARK  103  A    between atoms: _251  and  _252
REMARK  104  A    between atoms: _251  and  _254
REMARK  105  A    between atoms: _254  and  _255
REMARK  106  A    between atoms: _258  and  _260
REMARK  107  A    between atoms: _260  and  _261
REMARK  108  A    between atoms: _260  and  _263
REMARK  109  A    between atoms: _263  and  _264
REMARK  110  A    between atoms: _264  and  _265
REMARK  111  A    between atoms: _267  and  _269
REMARK  112  A    between atoms: _269  and  _270
REMARK  113  A    between atoms: _269  and  _272
REMARK  114  A    between atoms: _272  and  _273
REMARK  115  A    between atoms: _278  and  _280
REMARK  116  A    between atoms: _280  and  _281
REMARK  117  A    between atoms: _280  and  _283
REMARK  118  A    between atoms: _283  and  _284
REMARK  119  A    between atoms: _289  and  _291
REMARK  120  A    between atoms: _291  and  _292
REMARK  121  A    between atoms: _291  and  _294
REMARK  122  A    between atoms: _294  and  _295
REMARK  123  A    between atoms: _295  and  _296
REMARK  124  A    between atoms: _301  and  _303
REMARK  125  A    between atoms: _303  and  _304
REMARK  126  A    between atoms: _303  and  _306
REMARK  127  A    between atoms: _306  and  _307
REMARK  128  A    between atoms: _309  and  _311
REMARK  129  A    between atoms: _311  and  _312
REMARK  130  A    between atoms: _311  and  _314
REMARK  131  A    between atoms: _314  and  _315
REMARK  132  A    between atoms: _325  and  _327
REMARK  133  A    between atoms: _327  and  _328
REMARK  134  A    between atoms: _330  and  _332
REMARK  135  A    between atoms: _332  and  _333
REMARK  136  A    between atoms: _336  and  _338
REMARK  137  A    between atoms: _338  and  _339
REMARK  138  A    between atoms: _338  and  _341
REMARK  139  A    between atoms: _341  and  _342
REMARK  140  A    between atoms: _345  and  _347
REMARK  141  A    between atoms: _347  and  _348
REMARK  142  A    between atoms: _347  and  _350
REMARK  143  A    between atoms: _350  and  _351
REMARK  144  A    between atoms: _354  and  _356
REMARK  145  A    between atoms: _356  and  _357
REMARK  146  A    between atoms: _356  and  _359
REMARK  147  A    between atoms: _359  and  _360
REMARK  148  A    between atoms: _365  and  _367
REMARK  149  A    between atoms: _367  and  _368
REMARK  150  A    between atoms: _367  and  _370
REMARK  151  A    between atoms: _370  and  _371
REMARK  152  A    between atoms: _377  and  _379
REMARK  153  A    between atoms: _379  and  _380
REMARK  154  A    between atoms: _379  and  _382
REMARK  155  A    between atoms: _382  and  _383
REMARK  156  A    between atoms: _383  and  _384
REMARK  157  A    between atoms: _389  and  _391
REMARK  158  A    between atoms: _391  and  _392
REMARK  159  A    between atoms: _394  and  _396
REMARK  160  A    between atoms: _396  and  _397
REMARK  161  A    between atoms: _396  and  _399
REMARK  162  A    between atoms: _399  and  _400
REMARK  163  A    between atoms: _403  and  _405
REMARK  164  A    between atoms: _405  and  _406
REMARK  165  A    between atoms: _405  and  _408
REMARK  166  A    between atoms: _408  and  _409
REMARK  167  A    between atoms: _412  and  _414
REMARK  168  A    between atoms: _414  and  _415
REMARK  169  A    between atoms: _414  and  _417
REMARK  170  A    between atoms: _417  and  _418
REMARK  171  A    between atoms: _423  and  _424
REMARK  172  A    between atoms: _426  and  _428
REMARK  173  A    between atoms: _428  and  _429
REMARK  174  A    between atoms: _428  and  _431
REMARK  175  A    between atoms: _434  and  _436
REMARK  176  A    between atoms: _436  and  _437
REMARK  177  A    between atoms: _440  and  _442
REMARK  178  A    between atoms: _442  and  _443
REMARK  179  A    between atoms: _442  and  _445
REMARK  180  A    between atoms: _445  and  _446
REMARK  181  A    between atoms: _449  and  _451
REMARK  182  A    between atoms: _451  and  _452
REMARK  183  A    between atoms: _451  and  _454
REMARK  184  A    between atoms: _454  and  _455
REMARK  185  A    between atoms: _455  and  _456
REMARK  186  A    between atoms: _459  and  _461
REMARK  187  A    between atoms: _461  and  _462
REMARK  188  A    between atoms: _461  and  _464
REMARK  189  A    between atoms: _464  and  _465
REMARK  190  A    between atoms: _468  and  _470
REMARK  191  A    between atoms: _470  and  _471
REMARK  192  A    between atoms: _470  and  _473
REMARK  193  A    between atoms: _473  and  _474
REMARK  194  A    between atoms: _479  and  _481
REMARK  195  A    between atoms: _481  and  _482
REMARK  196  A    between atoms: _484  and  _486
REMARK  197  A    between atoms: _486  and  _487
REMARK  198  A    between atoms: _490  and  _492
REMARK  199  A    between atoms: _492  and  _493
REMARK  200  A    between atoms: _492  and  _495
REMARK  201  A    between atoms: _495  and  _496
REMARK  202  A    between atoms: _501  and  _503
REMARK  203  A    between atoms: _503  and  _504
REMARK  204  A    between atoms: _503  and  _506
REMARK  205  A    between atoms: _506  and  _507
REMARK  206  A    between atoms: _510  and  _512
REMARK  207  A    between atoms: _512  and  _513
REMARK  208  A    between atoms: _512  and  _515
REMARK  209  A    between atoms: _515  and  _516
REMARK  210  A    between atoms: _519  and  _521
REMARK  211  A    between atoms: _521  and  _522
REMARK  212  A    between atoms: _521  and  _524
REMARK  213  A    between atoms: _524  and  _525
REMARK  214  A    between atoms: _525  and  _526
REMARK  215  A    between atoms: _526  and  _527
REMARK  216  A    between atoms: _536  and  _538
REMARK  217  A    between atoms: _538  and  _539
REMARK  218  A    between atoms: _538  and  _541
REMARK  219  A    between atoms: _541  and  _542
REMARK  220  A    between atoms: _547  and  _549
REMARK  221  A    between atoms: _549  and  _550
REMARK  222  A    between atoms: _549  and  _552
REMARK  223  A    between atoms: _552  and  _553
REMARK  224  A    between atoms: _553  and  _554
REMARK  225  A    between atoms: _557  and  _559
REMARK  226  A    between atoms: _559  and  _560
REMARK  227  A    between atoms: _563  and  _565
REMARK  228  A    between atoms: _565  and  _566
REMARK  229  A    between atoms: _565  and  _568
REMARK  230  A    between atoms: _571  and  _573
REMARK  231  A    between atoms: _573  and  _574
REMARK  232  A    between atoms: _573  and  _576
REMARK  233  A    between atoms: _576  and  _577
REMARK  234  A    between atoms: _580  and  _582
REMARK  235  A    between atoms: _582  and  _583
REMARK  236  A    between atoms: _586  and  _588
REMARK  237  A    between atoms: _588  and  _589
REMARK  238  A    between atoms: _591  and  _593
REMARK  239  A    between atoms: _593  and  _594
REMARK  240  A    between atoms: _596  and  _598
REMARK  241  A    between atoms: _598  and  _599
REMARK  242  A    between atoms: _601  and  _603
REMARK  243  A    between atoms: _603  and  _604
REMARK  244  A    between atoms: _603  and  _606
REMARK  245  A    between atoms: _606  and  _607
REMARK  246  A    between atoms: _613  and  _615
REMARK  247  A    between atoms: _615  and  _616
REMARK  248  A    between atoms: _615  and  _618
REMARK  249  A    between atoms: _618  and  _619
REMARK  250  A    between atoms: _622  and  _624
REMARK  251  A    between atoms: _624  and  _625
REMARK  252  A    between atoms: _624  and  _627
REMARK  253  A    between atoms: _627  and  _628
REMARK  254  A    between atoms: _633  and  _635
REMARK  255  A    between atoms: _635  and  _636
REMARK  256  A    between atoms: _639  and  _641
REMARK  257  A    between atoms: _641  and  _642
REMARK  258  A    between atoms: _641  and  _644
REMARK  259  A    between atoms: _644  and  _645
REMARK  260  A    between atoms: _648  and  _650
REMARK  261  A    between atoms: _650  and  _651
REMARK  262  A    between atoms: _650  and  _653
REMARK  263  A    between atoms: _653  and  _654
REMARK  264  A    between atoms: _654  and  _655
REMARK  265  A    between atoms: _660  and  _662
REMARK  266  A    between atoms: _662  and  _663
REMARK  267  A    between atoms: _662  and  _665
REMARK  268  A    between atoms: _665  and  _666
REMARK                            x       y       z     vdW  Elec       q    Type
REMARK                         _______ _______ _______ _____ _____    ______ ____
ROOT
ATOM      1  CA  TYR A   6     -41.549  31.751  10.718  0.00  0.00    +0.153 C 
ENDROOT
BRANCH   1   3
ATOM      2  C   THR A   5     -40.866  32.687   8.632  0.00  0.00    +0.243 C 
ATOM      3  N   TYR A   6     -41.127  31.580   9.323  0.00  0.00    -0.297 N 
ATOM      4  H   TYR A   6     -41.036  30.637   8.894  0.00  0.00    +0.150 HD
ATOM      5  O   THR A   5     -40.824  33.791   9.166  0.00  0.00    -0.273 OA
BRANCH   2   6
ATOM      6  CA  THR A   5     -40.631  32.596   7.151  0.00  0.00    +0.176 C 
BRANCH   6   9
ATOM      7  C   LEU A   4     -38.612  31.325   7.471  0.00  0.00    +0.241 C 
ATOM      8  O   LEU A   4     -38.242  31.997   8.446  0.00  0.00    -0.273 OA
ATOM      9  N   THR A   5     -39.699  31.590   6.758  0.00  0.00    -0.295 N 
ATOM     10  H   THR A   5     -39.877  31.049   5.888  0.00  0.00    +0.150 HD
BRANCH   7  11
ATOM     11  CA  LEU A   4     -37.846  30.101   7.031  0.00  0.00    +0.149 C 
BRANCH  11  14
ATOM     12  C   ALA A   3     -39.558  28.577   8.025  0.00  0.00    +0.241 C 
ATOM     13  O   ALA A   3     -39.505  29.194   9.084  0.00  0.00    -0.273 OA
ATOM     14  N   LEU A   4     -38.752  28.891   6.993  0.00  0.00    -0.297 N 
ATOM     15  H   LEU A   4     -38.753  28.285   6.148  0.00  0.00    +0.150 HD
BRANCH  12  16
ATOM     16  CA  ALA A   3     -40.577  27.385   7.878  0.00  0.00    +0.149 C 
ATOM     17  CB  ALA A   3     -40.124  26.419   6.773  0.00  0.00    +0.031 C 
BRANCH  16  19
ATOM     18  C   GLY A   2     -42.458  28.174   6.617  0.00  0.00    +0.243 C 
ATOM     19  N   ALA A   3     -42.090  27.693   7.780  0.00  0.00    -0.297 N 
ATOM     20  H   ALA A   3     -42.754  27.533   8.564  0.00  0.00    +0.150 HD
ATOM     21  O   GLY A   2     -41.591  28.304   5.772  0.00  0.00    -0.273 OA
BRANCH  18  22
ATOM     22  CA  GLY A   2     -43.879  28.614   6.270  0.00  0.00    +0.176 C 
BRANCH  22  25
ATOM     23  C   ASP A   1     -45.401  29.378   7.922  0.00  0.00    +0.239 C 
ATOM     24  O   ASP A   1     -44.641  30.298   8.170  0.00  0.00    -0.274 OA
ATOM     25  N   GLY A   2     -45.072  28.464   7.033  0.00  0.00    -0.296 N 
ATOM     26  H   GLY A   2     -45.682  27.634   6.888  0.00  0.00    +0.150 HD
BRANCH  23  27
ATOM     27  CA  ASP A   1     -46.725  29.222   8.726  0.00  0.00    +0.156 C 
BRANCH  27  28
ATOM     28  N   ASP A   1     -46.832  30.487   9.416  0.00  0.00    -0.238 NA
ATOM     29  H   ASP A   1     -46.592  31.343   8.876  0.00  0.00    +0.142 HD
ENDBRANCH  27  28
BRANCH  27  30
ATOM     30  CB  ASP A   1     -47.975  29.026   7.834  0.00  0.00    +0.140 C 
BRANCH  30  31
ATOM     31  CG  ASP A   1     -48.155  27.553   7.247  0.00  0.00    +0.367 C 
ATOM     32  OD2 ASP A   1     -47.221  26.690   7.178  0.00  0.00    -0.246 OA
ATOM     33  OD1 ASP A   1     -49.292  27.277   6.787  0.00  0.00    -0.246 OA
ENDBRANCH  30  31
ENDBRANCH  27  30
ENDBRANCH  23  27
ENDBRANCH  22  25
ENDBRANCH  18  22
ENDBRANCH  16  19
ENDBRANCH  12  16
ENDBRANCH  11  14
BRANCH  11  34
ATOM     34  CB  LEU A   4     -37.127  30.398   5.684  0.00  0.00    +0.029 C 
BRANCH  34  35
ATOM     35  CG  LEU A   4     -35.956  29.448   5.351  0.00  0.00    +0.002 C 
ATOM     36  CD2 LEU A   4     -34.971  29.466   6.505  0.00  0.00    +0.000 C 
ATOM     37  CD1 LEU A   4     -35.249  29.764   4.041  0.00  0.00    +0.000 C 
ENDBRANCH  34  35
ENDBRANCH  11  34
ENDBRANCH   7  11
ENDBRANCH   6   9
BRANCH   6  38
ATOM     38  CB  THR A   5     -41.941  32.345   6.545  0.00  0.00    +0.137 C 
ATOM     39  CG2 THR A   5     -42.926  33.458   6.881  0.00  0.00    +0.034 C 
BRANCH  38  40
ATOM     40  OG1 THR A   5     -41.768  32.274   5.134  0.00  0.00    -0.382 OA
ATOM     41  HG1 THR A   5     -41.144  31.537   4.916  0.00  0.00    +0.210 HD
ENDBRANCH  38  40
ENDBRANCH   6  38
ENDBRANCH   2   6
ENDBRANCH   1   3
BRANCH   1  42
ATOM     42  C   TYR A   6     -40.361  31.862  11.661  0.00  0.00    +0.241 C 
ATOM     43  O   TYR A   6     -40.414  32.519  12.703  0.00  0.00    -0.273 OA
ATOM     44  N   LEU A   7     -39.297  31.198  11.272  0.00  0.00    -0.297 N 
ATOM     45  H   LEU A   7     -39.380  30.556  10.458  0.00  0.00    +0.150 HD
BRANCH  44  46
ATOM     46  CA  LEU A   7     -38.001  31.324  11.936  0.00  0.00    +0.149 C 
BRANCH  46  47
ATOM     47  C   LEU A   7     -37.522  32.788  11.975  0.00  0.00    +0.241 C 
ATOM     48  O   LEU A   7     -37.165  33.300  13.053  0.00  0.00    -0.273 OA
ATOM     49  N   TRP A   8     -37.586  33.474  10.824  0.00  0.00    -0.297 N 
ATOM     50  H   TRP A   8     -37.882  32.992   9.951  0.00  0.00    +0.150 HD
BRANCH  49  51
ATOM     51  CA  TRP A   8     -37.243  34.891  10.788  0.00  0.00    +0.153 C 
BRANCH  51  52
ATOM     52  C   TRP A   8     -38.244  35.668  11.628  0.00  0.00    +0.241 C 
ATOM     53  O   TRP A   8     -37.859  36.440  12.537  0.00  0.00    -0.273 OA
ATOM     54  N   LEU A   9     -39.528  35.446  11.349  0.00  0.00    -0.298 N 
ATOM     55  H   LEU A   9     -39.793  34.785  10.592  0.00  0.00    +0.150 HD
BRANCH  54  56
ATOM     56  CA  LEU A   9     -40.554  36.135  12.111  0.00  0.00    +0.137 C 
BRANCH  56  57
ATOM     57  C   LEU A   9     -40.346  36.014  13.646  0.00  0.00    +0.227 C 
ATOM     58  O   LEU A   9     -40.466  37.028  14.373  0.00  0.00    -0.286 OA
ENDBRANCH  56  57
BRANCH  56  59
ATOM     59  CB  LEU A   9     -41.922  35.653  11.710  0.00  0.00    +0.028 C 
BRANCH  59  60
ATOM     60  CG  LEU A   9     -43.055  36.498  12.235  0.00  0.00    +0.002 C 
ATOM     61  CD2 LEU A   9     -44.332  35.719  12.230  0.00  0.00    +0.000 C 
ATOM     62  CD1 LEU A   9     -43.185  37.776  11.411  0.00  0.00    +0.000 C 
ENDBRANCH  59  60
ENDBRANCH  56  59
ENDBRANCH  54  56
ENDBRANCH  51  52
BRANCH  51  63
ATOM     63  CB  TRP A   8     -37.226  35.449   9.360  0.00  0.00    +0.057 C 
BRANCH  63  64
ATOM     64  CG  TRP A   8     -36.063  35.037   8.599  0.00  0.00    -0.002 A 
ATOM     65  CD2 TRP A   8     -34.695  35.350   8.894  0.00  0.00    +0.013 A 
ATOM     66  CE3 TRP A   8     -34.061  36.127   9.890  0.00  0.00    +0.001 A 
ATOM     67  CZ3 TRP A   8     -32.649  36.257   9.857  0.00  0.00    +0.000 A 
ATOM     68  CH2 TRP A   8     -31.896  35.632   8.852  0.00  0.00    +0.001 A 
ATOM     69  CZ2 TRP A   8     -32.503  34.879   7.865  0.00  0.00    +0.017 A 
ATOM     70  CE2 TRP A   8     -33.905  34.741   7.903  0.00  0.00    +0.056 A 
ATOM     71  NE1 TRP A   8     -34.749  34.045   7.075  0.00  0.00    -0.352 N 
ATOM     72  HE1 TRP A   8     -34.459  33.477   6.254  0.00  0.00    +0.166 HD
ATOM     73  CD1 TRP A   8     -36.048  34.223   7.511  0.00  0.00    +0.068 A 
ENDBRANCH  63  64
ENDBRANCH  51  63
ENDBRANCH  49  51
ENDBRANCH  46  47
BRANCH  46  74
ATOM     74  CB  LEU A   7     -36.967  30.378  11.252  0.00  0.00    +0.029 C 
BRANCH  74  75
ATOM     75  CG  LEU A   7     -37.235  28.886  11.595  0.00  0.00    +0.002 C 
ATOM     76  CD2 LEU A   7     -37.228  28.611  13.130  0.00  0.00    +0.000 C 
ATOM     77  CD1 LEU A   7     -36.290  27.940  10.916  0.00  0.00    +0.000 C 
ENDBRANCH  74  75
ENDBRANCH  46  74
ENDBRANCH  44  46
ENDBRANCH   1  42
BRANCH   1  78
ATOM     78  CB  TYR A   6     -42.574  30.690  11.160  0.00  0.00    +0.055 C 
BRANCH  78  79
ATOM     79  CG  TYR A   6     -41.972  29.413  11.702  0.00  0.00    -0.020 A 
ATOM     80  CD2 TYR A   6     -41.384  29.371  12.992  0.00  0.00    -0.001 A 
ATOM     81  CE2 TYR A   6     -40.810  28.192  13.490  0.00  0.00    +0.036 A 
ATOM     82  CZ  TYR A   6     -40.870  27.029  12.691  0.00  0.00    +0.134 A 
ATOM     83  CE1 TYR A   6     -41.469  27.049  11.397  0.00  0.00    +0.036 A 
ATOM     84  CD1 TYR A   6     -42.010  28.231  10.927  0.00  0.00    -0.001 A 
BRANCH  82  85
ATOM     85  OH  TYR A   6     -40.341  25.837  13.135  0.00  0.00    -0.506 OA
ATOM     86  HH  TYR A   6     -39.960  25.963  14.040  0.00  0.00    +0.292 HD
ENDBRANCH  82  85
ENDBRANCH  78  79
ENDBRANCH   1  78
TORSDOF 33
REMARK  Name = ../refined-set-2016/3d7k/3d7k_pocket.pdb
REMARK  268 active torsions:
REMARK  status: ('A' for Active; 'I' for Inactive)
REMARK    1  A    between atoms: _1  and  _3
REMARK    2  A    between atoms: _3  and  _4
REMARK    3  A    between atoms: _3  and  _6
REMARK    4  A    between atoms: _6  and  _7
REMARK    5  A    between atoms: _10  and  _12
REMARK    6  A    between atoms: _12  and  _13
REMARK    7  A    between atoms: _12  and  _15
REMARK    8  A    between atoms: _15  and  _16
REMARK    9  A    between atoms: _20  and  _21
REMARK   10  A    between atoms: _26  and  _28
REMARK   11  A    between atoms: _28  and  _29
REMARK   12  A    between atoms: _28  and  _31
REMARK   13  A    between atoms: _31  and  _32
REMARK   14  A    between atoms: _35  and  _37
REMARK   15  A    between atoms: _37  and  _38
REMARK   16  A    between atoms: _40  and  _42
REMARK   17  A    between atoms: _42  and  _43
REMARK   18  A    between atoms: _46  and  _48
REMARK   19  A    between atoms: _48  and  _49
REMARK   20  A    between atoms: _48  and  _51
REMARK   21  A    between atoms: _51  and  _52
REMARK   22  A    between atoms: _55  and  _57
REMARK   23  A    between atoms: _57  and  _58
REMARK   24  A    between atoms: _57  and  _60
REMARK   25  A    between atoms: _60  and  _61
REMARK   26  A    between atoms: _64  and  _66
REMARK   27  A    between atoms: _66  and  _67
REMARK   28  A    between atoms: _66  and  _69
REMARK   29  A    between atoms: _69  and  _70
REMARK   30  A    between atoms: _75  and  _76
REMARK   31  A    between atoms: _78  and  _80
REMARK   32  A    between atoms: _80  and  _81
REMARK   33  A    between atoms: _80  and  _83
REMARK   34  A    between atoms: _83  and  _84
REMARK   35  A    between atoms: _87  and  _89
REMARK   36  A    between atoms: _89  and  _90
REMARK   37  A    between atoms: _89  and  _92
REMARK   38  A    between atoms: _92  and  _93
REMARK   39  A    between atoms: _103  and  _105
REMARK   40  A    between atoms: _105  and  _106
REMARK   41  A    between atoms: _105  and  _108
REMARK   42  A    between atoms: _108  and  _109
REMARK   43  A    between atoms: _112  and  _114
REMARK   44  A    between atoms: _114  and  _115
REMARK   45  A    between atoms: _114  and  _117
REMARK   46  A    between atoms: _117  and  _118
REMARK   47  A    between atoms: _123  and  _125
REMARK   48  A    between atoms: _125  and  _126
REMARK   49  A    between atoms: _128  and  _130
REMARK   50  A    between atoms: _130  and  _131
REMARK   51  A    between atoms: _130  and  _133
REMARK   52  A    between atoms: _133  and  _134
REMARK   53  A    between atoms: _139  and  _140
REMARK   54  A    between atoms: _142  and  _144
REMARK   55  A    between atoms: _144  and  _145
REMARK   56  A    between atoms: _144  and  _147
REMARK   57  A    between atoms: _147  and  _148
REMARK   58  A    between atoms: _151  and  _153
REMARK   59  A    between atoms: _153  and  _154
REMARK   60  A    between atoms: _156  and  _158
REMARK   61  A    between atoms: _158  and  _159
REMARK   62  A    between atoms: _158  and  _161
REMARK   63  A    between atoms: _161  and  _162
REMARK   64  A    between atoms: _164  and  _166
REMARK   65  A    between atoms: _166  and  _167
REMARK   66  A    between atoms: _166  and  _169
REMARK   67  A    between atoms: _169  and  _170
REMARK   68  A    between atoms: _170  and  _171
REMARK   69  A    between atoms: _173  and  _175
REMARK   70  A    between atoms: _175  and  _176
REMARK   71  A    between atoms: _178  and  _180
REMARK   72  A    between atoms: _180  and  _181
REMARK   73  A    between atoms: _180  and  _183
REMARK   74  A    between atoms: _186  and  _188
REMARK   75  A    between atoms: _188  and  _189
REMARK   76  A    between atoms: _188  and  _191
REMARK   77  A    between atoms: _191  and  _192
REMARK   78  A    between atoms: _195  and  _197
REMARK   79  A    between atoms: _197  and  _198
REMARK   80  A    between atoms: _200  and  _202
REMARK   81  A    between atoms: _202  and  _203
REMARK   82  A    between atoms: _202  and  _205
REMARK   83  A    between atoms: _205  and  _206
REMARK   84  A    between atoms: _206  and  _207
REMARK   85  A    between atoms: _207  and  CA_676
REMARK   86  A    between atoms: _209  and  _211
REMARK   87  A    between atoms: _211  and  _212
REMARK   88  A    between atoms: _214  and  _216
REMARK   89  A    between atoms: _216  and  _217
REMARK   90  A    between atoms: _216  and  _219
REMARK   91  A    between atoms: _219  and  _220
REMARK   92  A    between atoms: _222  and  _224
REMARK   93  A    between atoms: _224  and  _225
REMARK   94  A    between atoms: _224  and  _227
REMARK   95  A    between atoms: _230  and  _232
REMARK   96  A    between atoms: _232  and  _233
REMARK   97  A    between atoms: _235  and  _237
REMARK   98  A    between atoms: _237  and  _238
REMARK   99  A    between atoms: _237  and  _240
REMARK  100  A    between atoms: _240  and  _241
REMARK  101  A    between atoms: _246  and  _247
REMARK  102  A    between atoms: _249  and  _251
REMARK  103  A    between atoms: _251  and  _252
REMARK  104  A    between atoms: _251  and  _254
REMARK  105  A    between atoms: _254  and  _255
REMARK  106  A    between atoms: _258  and  _260
REMARK  107  A    between atoms: _260  and  _261
REMARK  108  A    between atoms: _260  and  _263
REMARK  109  A    between atoms: _263  and  _264
REMARK  110  A    between atoms: _264  and  _265
REMARK  111  A    between atoms: _267  and  _269
REMARK  112  A    between atoms: _269  and  _270
REMARK  113  A    between atoms: _269  and  _272
REMARK  114  A    between atoms: _272  and  _273
REMARK  115  A    between atoms: _278  and  _280
REMARK  116  A    between atoms: _280  and  _281
REMARK  117  A    between atoms: _280  and  _283
REMARK  118  A    between atoms: _283  and  _284
REMARK  119  A    between atoms: _289  and  _291
REMARK  120  A    between atoms: _291  and  _292
REMARK  121  A    between atoms: _291  and  _294
REMARK  122  A    between atoms: _294  and  _295
REMARK  123  A    between atoms: _295  and  _296
REMARK  124  A    between atoms: _301  and  _303
REMARK  125  A    between atoms: _303  and  _304
REMARK  126  A    between atoms: _303  and  _306
REMARK  127  A    between atoms: _306  and  _307
REMARK  128  A    between atoms: _309  and  _311
REMARK  129  A    between atoms: _311  and  _312
REMARK  130  A    between atoms: _311  and  _314
REMARK  131  A    between atoms: _314  and  _315
REMARK  132  A    between atoms: _325  and  _327
REMARK  133  A    between atoms: _327  and  _328
REMARK  134  A    between atoms: _330  and  _332
REMARK  135  A    between atoms: _332  and  _333
REMARK  136  A    between atoms: _336  and  _338
REMARK  137  A    between atoms: _338  and  _339
REMARK  138  A    between atoms: _338  and  _341
REMARK  139  A    between atoms: _341  and  _342
REMARK  140  A    between atoms: _345  and  _347
REMARK  141  A    between atoms: _347  and  _348
REMARK  142  A    between atoms: _347  and  _350
REMARK  143  A    between atoms: _350  and  _351
REMARK  144  A    between atoms: _354  and  _356
REMARK  145  A    between atoms: _356  and  _357
REMARK  146  A    between atoms: _356  and  _359
REMARK  147  A    between atoms: _359  and  _360
REMARK  148  A    between atoms: _365  and  _367
REMARK  149  A    between atoms: _367  and  _368
REMARK  150  A    between atoms: _367  and  _370
REMARK  151  A    between atoms: _370  and  _371
REMARK  152  A    between atoms: _377  and  _379
REMARK  153  A    between atoms: _379  and  _380
REMARK  154  A    between atoms: _379  and  _382
REMARK  155  A    between atoms: _382  and  _383
REMARK  156  A    between atoms: _383  and  _384
REMARK  157  A    between atoms: _389  and  _391
REMARK  158  A    between atoms: _391  and  _392
REMARK  159  A    between atoms: _394  and  _396
REMARK  160  A    between atoms: _396  and  _397
REMARK  161  A    between atoms: _396  and  _399
REMARK  162  A    between atoms: _399  and  _400
REMARK  163  A    between atoms: _403  and  _405
REMARK  164  A    between atoms: _405  and  _406
REMARK  165  A    between atoms: _405  and  _408
REMARK  166  A    between atoms: _408  and  _409
REMARK  167  A    between atoms: _412  and  _414
REMARK  168  A    between atoms: _414  and  _415
REMARK  169  A    between atoms: _414  and  _417
REMARK  170  A    between atoms: _417  and  _418
REMARK  171  A    between atoms: _423  and  _424
REMARK  172  A    between atoms: _426  and  _428
REMARK  173  A    between atoms: _428  and  _429
REMARK  174  A    between atoms: _428  and  _431
REMARK  175  A    between atoms: _434  and  _436
REMARK  176  A    between atoms: _436  and  _437
REMARK  177  A    between atoms: _440  and  _442
REMARK  178  A    between atoms: _442  and  _443
REMARK  179  A    between atoms: _442  and  _445
REMARK  180  A    between atoms: _445  and  _446
REMARK  181  A    between atoms: _449  and  _451
REMARK  182  A    between atoms: _451  and  _452
REMARK  183  A    between atoms: _451  and  _454
REMARK  184  A    between atoms: _454  and  _455
REMARK  185  A    between atoms: _455  and  _456
REMARK  186  A    between atoms: _459  and  _461
REMARK  187  A    between atoms: _461  and  _462
REMARK  188  A    between atoms: _461  and  _464
REMARK  189  A    between atoms: _464  and  _465
REMARK  190  A    between atoms: _468  and  _470
REMARK  191  A    between atoms: _470  and  _471
REMARK  192  A    between atoms: _470  and  _473
REMARK  193  A    between atoms: _473  and  _474
REMARK  194  A    between atoms: _479  and  _481
REMARK  195  A    between atoms: _481  and  _482
REMARK  196  A    between atoms: _484  and  _486
REMARK  197  A    between atoms: _486  and  _487
REMARK  198  A    between atoms: _490  and  _492
REMARK  199  A    between atoms: _492  and  _493
REMARK  200  A    between atoms: _492  and  _495
REMARK  201  A    between atoms: _495  and  _496
REMARK  202  A    between atoms: _501  and  _503
REMARK  203  A    between atoms: _503  and  _504
REMARK  204  A    between atoms: _503  and  _506
REMARK  205  A    between atoms: _506  and  _507
REMARK  206  A    between atoms: _510  and  _512
REMARK  207  A    between atoms: _512  and  _513
REMARK  208  A    between atoms: _512  and  _515
REMARK  209  A    between atoms: _515  and  _516
REMARK  210  A    between atoms: _519  and  _521
REMARK  211  A    between atoms: _521  and  _522
REMARK  212  A    between atoms: _521  and  _524
REMARK  213  A    between atoms: _524  and  _525
REMARK  214  A    between atoms: _525  and  _526
REMARK  215  A    between atoms: _526  and  _527
REMARK  216  A    between atoms: _536  and  _538
REMARK  217  A    between atoms: _538  and  _539
REMARK  218  A    between atoms: _538  and  _541
REMARK  219  A    between atoms: _541  and  _542
REMARK  220  A    between atoms: _547  and  _549
REMARK  221  A    between atoms: _549  and  _550
REMARK  222  A    between atoms: _549  and  _552
REMARK  223  A    between atoms: _552  and  _553
REMARK  224  A    between atoms: _553  and  _554
REMARK  225  A    between atoms: _557  and  _559
REMARK  226  A    between atoms: _559  and  _560
REMARK  227  A    between atoms: _563  and  _565
REMARK  228  A    between atoms: _565  and  _566
REMARK  229  A    between atoms: _565  and  _568
REMARK  230  A    between atoms: _571  and  _573
REMARK  231  A    between atoms: _573  and  _574
REMARK  232  A    between atoms: _573  and  _576
REMARK  233  A    between atoms: _576  and  _577
REMARK  234  A    between atoms: _580  and  _582
REMARK  235  A    between atoms: _582  and  _583
REMARK  236  A    between atoms: _586  and  _588
REMARK  237  A    between atoms: _588  and  _589
REMARK  238  A    between atoms: _591  and  _593
REMARK  239  A    between atoms: _593  and  _594
REMARK  240  A    between atoms: _596  and  _598
REMARK  241  A    between atoms: _598  and  _599
REMARK  242  A    between atoms: _601  and  _603
REMARK  243  A    between atoms: _603  and  _604
REMARK  244  A    between atoms: _603  and  _606
REMARK  245  A    between atoms: _606  and  _607
REMARK  246  A    between atoms: _613  and  _615
REMARK  247  A    between atoms: _615  and  _616
REMARK  248  A    between atoms: _615  and  _618
REMARK  249  A    between atoms: _618  and  _619
REMARK  250  A    between atoms: _622  and  _624
REMARK  251  A    between atoms: _624  and  _625
REMARK  252  A    between atoms: _624  and  _627
REMARK  253  A    between atoms: _627  and  _628
REMARK  254  A    between atoms: _633  and  _635
REMARK  255  A    between atoms: _635  and  _636
REMARK  256  A    between atoms: _639  and  _641
REMARK  257  A    between atoms: _641  and  _642
REMARK  258  A    between atoms: _641  and  _644
REMARK  259  A    between atoms: _644  and  _645
REMARK  260  A    between atoms: _648  and  _650
REMARK  261  A    between atoms: _650  and  _651
REMARK  262  A    between atoms: _650  and  _653
REMARK  263  A    between atoms: _653  and  _654
REMARK  264  A    between atoms: _654  and  _655
REMARK  265  A    between atoms: _660  and  _662
REMARK  266  A    between atoms: _662  and  _663
REMARK  267  A    between atoms: _662  and  _665
REMARK  268  A    between atoms: _665  and  _666
REMARK                            x       y       z     vdW  Elec       q    Type
REMARK                         _______ _______ _______ _____ _____    ______ ____
ROOT
ATOM      1  CA  LEU A   4     -46.184  18.351  13.940  0.00  0.00    +0.149 C 
ENDROOT
BRANCH   1   2
ATOM      2  C   LEU A   4     -45.384  19.008  12.805  0.00  0.00    +0.241 C 
ATOM      3  N   GLY A   5     -45.192  20.331  12.928  0.00  0.00    -0.295 N 
ATOM      4  H   GLY A   5     -45.501  20.789  13.809  0.00  0.00    +0.150 HD
ATOM      5  O   LEU A   4     -44.951  18.329  11.864  0.00  0.00    -0.273 OA
BRANCH   3   6
ATOM      6  CA  GLY A   5     -44.577  21.167  11.903  0.00  0.00    +0.176 C 
BRANCH   6   7
ATOM      7  C   GLY A   5     -45.152  21.015  10.512  0.00  0.00    +0.243 C 
ATOM      8  N   SER A   6     -46.466  21.100  10.372  0.00  0.00    -0.295 N 
ATOM      9  H   SER A   6     -47.084  21.366  11.165  0.00  0.00    +0.150 HD
ATOM     10  O   GLY A   5     -44.409  20.821   9.541  0.00  0.00    -0.273 OA
BRANCH   8  11
ATOM     11  CA  SER A   6     -47.001  20.804   9.057  0.00  0.00    +0.178 C 
BRANCH  11  12
ATOM     12  C   SER A   6     -47.185  22.064   8.208  0.00  0.00    +0.243 C 
ATOM     13  O   SER A   6     -48.006  22.930   8.530  0.00  0.00    -0.273 OA
ATOM     14  N   MET A   7     -46.460  22.148   7.100  0.00  0.00    -0.297 N 
ATOM     15  H   MET A   7     -45.810  21.380   6.837  0.00  0.00    +0.150 HD
BRANCH  14  16
ATOM     16  CA  MET A   7     -46.584  23.330   6.254  0.00  0.00    +0.149 C 
BRANCH  16  17
ATOM     17  C   MET A   7     -47.951  23.399   5.636  0.00  0.00    +0.241 C 
ATOM     18  N   GLY A   8     -48.618  24.549   5.794  0.00  0.00    -0.295 N 
ATOM     19  H   GLY A   8     -48.235  25.278   6.430  0.00  0.00    +0.150 HD
ATOM     20  O   MET A   7     -48.370  22.442   4.973  0.00  0.00    -0.273 OA
BRANCH  18  21
ATOM     21  CA  GLY A   8     -49.880  24.801   5.087  0.00  0.00    +0.176 C 
BRANCH  21  22
ATOM     22  C   GLY A   8     -51.091  24.910   5.995  0.00  0.00    +0.243 C 
ATOM     23  N   VAL A   9     -50.916  24.589   7.279  0.00  0.00    -0.298 N 
ATOM     24  H   VAL A   9     -49.972  24.303   7.608  0.00  0.00    +0.150 HD
ATOM     25  O   GLY A   8     -52.160  25.309   5.546  0.00  0.00    -0.273 OA
BRANCH  23  26
ATOM     26  CA  VAL A   9     -52.013  24.631   8.225  0.00  0.00    +0.137 C 
BRANCH  26  27
ATOM     27  CB  VAL A   9     -51.705  23.835   9.532  0.00  0.00    +0.026 C 
ATOM     28  CG2 VAL A   9     -50.701  24.578  10.395  0.00  0.00    +0.002 C 
ATOM     29  CG1 VAL A   9     -51.173  22.452   9.192  0.00  0.00    +0.002 C 
ENDBRANCH  26  27
BRANCH  26  30
ATOM     30  C   VAL A   9     -52.428  26.095   8.529  0.00  0.00    +0.227 C 
ATOM     31  O   VAL A   9     -53.538  26.325   9.025  0.00  0.00    -0.286 OA
ENDBRANCH  26  30
ENDBRANCH  23  26
ENDBRANCH  21  22
ENDBRANCH  18  21
ENDBRANCH  16  17
BRANCH  16  32
ATOM     32  CB  MET A   7     -45.533  23.334   5.134  0.00  0.00    +0.041 C 
BRANCH  32  33
ATOM     33  CG  MET A   7     -44.083  23.253   5.643  0.00  0.00    +0.060 C 
BRANCH  33  34
ATOM     34  SD  MET A   7     -43.539  24.749   6.554  0.00  0.00    -0.139 S 
ATOM     35  CE  MET A   7     -42.636  23.961   7.898  0.00  0.00    +0.069 C 
ENDBRANCH  33  34
ENDBRANCH  32  33
ENDBRANCH  16  32
ENDBRANCH  14  16
ENDBRANCH  11  12
BRANCH  11  36
ATOM     36  CB  SER A   6     -48.299  20.020   9.159  0.00  0.00    +0.166 C 
BRANCH  36  37
ATOM     37  OG  SER A   6     -48.520  19.318   7.963  0.00  0.00    -0.380 OA
ATOM     38  H   SER A   6     -49.366  18.808   8.032  0.00  0.00    +0.211 HD
ENDBRANCH  36  37
ENDBRANCH  11  36
ENDBRANCH   8  11
ENDBRANCH   6   7
ENDBRANCH   3   6
ENDBRANCH   1   2
BRANCH   1  41
ATOM     39  C   TYR A   3     -44.661  18.956  15.732  0.00  0.00    +0.241 C 
ATOM     40  O   TYR A   3     -43.697  18.361  15.209  0.00  0.00    -0.273 OA
ATOM     41  N   LEU A   4     -45.879  19.018  15.190  0.00  0.00    -0.297 N 
ATOM     42  H   LEU A   4     -46.625  19.556  15.675  0.00  0.00    +0.150 HD
BRANCH  39  43
ATOM     43  CA  TYR A   3     -44.503  19.610  17.088  0.00  0.00    +0.153 C 
BRANCH  43  45
ATOM     44  C   GLY A   2     -45.366  21.816  16.661  0.00  0.00    +0.243 C 
ATOM     45  N   TYR A   3     -45.468  20.670  17.331  0.00  0.00    -0.297 N 
ATOM     46  H   TYR A   3     -46.232  20.534  18.023  0.00  0.00    +0.150 HD
ATOM     47  O   GLY A   2     -44.569  21.947  15.721  0.00  0.00    -0.273 OA
BRANCH  44  48
ATOM     48  CA  GLY A   2     -46.300  22.961  17.055  0.00  0.00    +0.176 C 
BRANCH  48  51
ATOM     49  C   HIS A   1     -46.038  24.885  15.506  0.00  0.00    +0.239 C 
ATOM     50  O   HIS A   1     -45.120  25.392  16.140  0.00  0.00    -0.274 OA
ATOM     51  N   GLY A   2     -46.709  23.789  15.905  0.00  0.00    -0.296 N 
ATOM     52  H   GLY A   2     -47.560  23.511  15.375  0.00  0.00    +0.150 HD
BRANCH  49  53
ATOM     53  CA  HIS A   1     -46.435  25.477  14.145  0.00  0.00    +0.151 C 
BRANCH  53  54
ATOM     54  N   HIS A   1     -46.605  26.927  14.157  0.00  0.00    -0.238 NA
ATOM     55  H   HIS A   1     -46.113  27.491  13.435  0.00  0.00    +0.142 HD
ENDBRANCH  53  54
BRANCH  53  56
ATOM     56  CB  HIS A   1     -45.345  25.048  13.175  0.00  0.00    +0.074 C 
BRANCH  56  57
ATOM     57  CG  HIS A   1     -45.656  25.305  11.748  0.00  0.00    +0.082 A 
ATOM     58  CD2 HIS A   1     -46.687  24.900  10.965  0.00  0.00    +0.115 A 
ATOM     59  NE2 HIS A   1     -46.458  25.407   9.704  0.00  0.00    -0.221 NA
ATOM     60  CE1 HIS A   1     -45.331  26.101   9.715  0.00  0.00    +0.199 A 
ATOM     61  ND1 HIS A   1     -44.823  26.048  10.936  0.00  0.00    -0.227 NA
ENDBRANCH  56  57
ENDBRANCH  53  56
ENDBRANCH  49  53
ENDBRANCH  48  51
ENDBRANCH  44  48
ENDBRANCH  43  45
BRANCH  43  62
ATOM     62  CB  TYR A   3     -44.531  18.524  18.175  0.00  0.00    +0.055 C 
BRANCH  62  63
ATOM     63  CG  TYR A   3     -44.117  18.960  19.562  0.00  0.00    -0.020 A 
ATOM     64  CD2 TYR A   3     -44.690  18.348  20.695  0.00  0.00    -0.001 A 
ATOM     65  CE2 TYR A   3     -44.325  18.745  22.008  0.00  0.00    +0.036 A 
ATOM     66  CZ  TYR A   3     -43.371  19.766  22.191  0.00  0.00    +0.134 A 
ATOM     67  CE1 TYR A   3     -42.774  20.381  21.078  0.00  0.00    +0.036 A 
ATOM     68  CD1 TYR A   3     -43.146  19.962  19.765  0.00  0.00    -0.001 A 
BRANCH  66  69
ATOM     69  OH  TYR A   3     -43.029  20.135  23.488  0.00  0.00    -0.506 OA
ATOM     70  HH  TYR A   3     -42.353  20.858  23.457  0.00  0.00    +0.292 HD
ENDBRANCH  66  69
ENDBRANCH  62  63
ENDBRANCH  43  62
ENDBRANCH  39  43
ENDBRANCH   1  41
BRANCH   1  71
ATOM     71  CB  LEU A   4     -47.681  18.407  13.647  0.00  0.00    +0.029 C 
BRANCH  71  72
ATOM     72  CG  LEU A   4     -48.119  17.589  12.438  0.00  0.00    +0.002 C 
ATOM     73  CD2 LEU A   4     -48.007  16.084  12.684  0.00  0.00    +0.000 C 
ATOM     74  CD1 LEU A   4     -49.533  17.955  12.068  0.00  0.00    +0.000 C 
ENDBRANCH  71  72
ENDBRANCH   1  71
TORSDOF 31
REMARK  Name = ../refined-set-2016/3d7k/3d7k_pocket.pdb
REMARK  268 active torsions:
REMARK  status: ('A' for Active; 'I' for Inactive)
REMARK    1  A    between atoms: _1  and  _3
REMARK    2  A    between atoms: _3  and  _4
REMARK    3  A    between atoms: _3  and  _6
REMARK    4  A    between atoms: _6  and  _7
REMARK    5  A    between atoms: _10  and  _12
REMARK    6  A    between atoms: _12  and  _13
REMARK    7  A    between atoms: _12  and  _15
REMARK    8  A    between atoms: _15  and  _16
REMARK    9  A    between atoms: _20  and  _21
REMARK   10  A    between atoms: _26  and  _28
REMARK   11  A    between atoms: _28  and  _29
REMARK   12  A    between atoms: _28  and  _31
REMARK   13  A    between atoms: _31  and  _32
REMARK   14  A    between atoms: _35  and  _37
REMARK   15  A    between atoms: _37  and  _38
REMARK   16  A    between atoms: _40  and  _42
REMARK   17  A    between atoms: _42  and  _43
REMARK   18  A    between atoms: _46  and  _48
REMARK   19  A    between atoms: _48  and  _49
REMARK   20  A    between atoms: _48  and  _51
REMARK   21  A    between atoms: _51  and  _52
REMARK   22  A    between atoms: _55  and  _57
REMARK   23  A    between atoms: _57  and  _58
REMARK   24  A    between atoms: _57  and  _60
REMARK   25  A    between atoms: _60  and  _61
REMARK   26  A    between atoms: _64  and  _66
REMARK   27  A    between atoms: _66  and  _67
REMARK   28  A    between atoms: _66  and  _69
REMARK   29  A    between atoms: _69  and  _70
REMARK   30  A    between atoms: _75  and  _76
REMARK   31  A    between atoms: _78  and  _80
REMARK   32  A    between atoms: _80  and  _81
REMARK   33  A    between atoms: _80  and  _83
REMARK   34  A    between atoms: _83  and  _84
REMARK   35  A    between atoms: _87  and  _89
REMARK   36  A    between atoms: _89  and  _90
REMARK   37  A    between atoms: _89  and  _92
REMARK   38  A    between atoms: _92  and  _93
REMARK   39  A    between atoms: _103  and  _105
REMARK   40  A    between atoms: _105  and  _106
REMARK   41  A    between atoms: _105  and  _108
REMARK   42  A    between atoms: _108  and  _109
REMARK   43  A    between atoms: _112  and  _114
REMARK   44  A    between atoms: _114  and  _115
REMARK   45  A    between atoms: _114  and  _117
REMARK   46  A    between atoms: _117  and  _118
REMARK   47  A    between atoms: _123  and  _125
REMARK   48  A    between atoms: _125  and  _126
REMARK   49  A    between atoms: _128  and  _130
REMARK   50  A    between atoms: _130  and  _131
REMARK   51  A    between atoms: _130  and  _133
REMARK   52  A    between atoms: _133  and  _134
REMARK   53  A    between atoms: _139  and  _140
REMARK   54  A    between atoms: _142  and  _144
REMARK   55  A    between atoms: _144  and  _145
REMARK   56  A    between atoms: _144  and  _147
REMARK   57  A    between atoms: _147  and  _148
REMARK   58  A    between atoms: _151  and  _153
REMARK   59  A    between atoms: _153  and  _154
REMARK   60  A    between atoms: _156  and  _158
REMARK   61  A    between atoms: _158  and  _159
REMARK   62  A    between atoms: _158  and  _161
REMARK   63  A    between atoms: _161  and  _162
REMARK   64  A    between atoms: _164  and  _166
REMARK   65  A    between atoms: _166  and  _167
REMARK   66  A    between atoms: _166  and  _169
REMARK   67  A    between atoms: _169  and  _170
REMARK   68  A    between atoms: _170  and  _171
REMARK   69  A    between atoms: _173  and  _175
REMARK   70  A    between atoms: _175  and  _176
REMARK   71  A    between atoms: _178  and  _180
REMARK   72  A    between atoms: _180  and  _181
REMARK   73  A    between atoms: _180  and  _183
REMARK   74  A    between atoms: _186  and  _188
REMARK   75  A    between atoms: _188  and  _189
REMARK   76  A    between atoms: _188  and  _191
REMARK   77  A    between atoms: _191  and  _192
REMARK   78  A    between atoms: _195  and  _197
REMARK   79  A    between atoms: _197  and  _198
REMARK   80  A    between atoms: _200  and  _202
REMARK   81  A    between atoms: _202  and  _203
REMARK   82  A    between atoms: _202  and  _205
REMARK   83  A    between atoms: _205  and  _206
REMARK   84  A    between atoms: _206  and  _207
REMARK   85  A    between atoms: _207  and  CA_676
REMARK   86  A    between atoms: _209  and  _211
REMARK   87  A    between atoms: _211  and  _212
REMARK   88  A    between atoms: _214  and  _216
REMARK   89  A    between atoms: _216  and  _217
REMARK   90  A    between atoms: _216  and  _219
REMARK   91  A    between atoms: _219  and  _220
REMARK   92  A    between atoms: _222  and  _224
REMARK   93  A    between atoms: _224  and  _225
REMARK   94  A    between atoms: _224  and  _227
REMARK   95  A    between atoms: _230  and  _232
REMARK   96  A    between atoms: _232  and  _233
REMARK   97  A    between atoms: _235  and  _237
REMARK   98  A    between atoms: _237  and  _238
REMARK   99  A    between atoms: _237  and  _240
REMARK  100  A    between atoms: _240  and  _241
REMARK  101  A    between atoms: _246  and  _247
REMARK  102  A    between atoms: _249  and  _251
REMARK  103  A    between atoms: _251  and  _252
REMARK  104  A    between atoms: _251  and  _254
REMARK  105  A    between atoms: _254  and  _255
REMARK  106  A    between atoms: _258  and  _260
REMARK  107  A    between atoms: _260  and  _261
REMARK  108  A    between atoms: _260  and  _263
REMARK  109  A    between atoms: _263  and  _264
REMARK  110  A    between atoms: _264  and  _265
REMARK  111  A    between atoms: _267  and  _269
REMARK  112  A    between atoms: _269  and  _270
REMARK  113  A    between atoms: _269  and  _272
REMARK  114  A    between atoms: _272  and  _273
REMARK  115  A    between atoms: _278  and  _280
REMARK  116  A    between atoms: _280  and  _281
REMARK  117  A    between atoms: _280  and  _283
REMARK  118  A    between atoms: _283  and  _284
REMARK  119  A    between atoms: _289  and  _291
REMARK  120  A    between atoms: _291  and  _292
REMARK  121  A    between atoms: _291  and  _294
REMARK  122  A    between atoms: _294  and  _295
REMARK  123  A    between atoms: _295  and  _296
REMARK  124  A    between atoms: _301  and  _303
REMARK  125  A    between atoms: _303  and  _304
REMARK  126  A    between atoms: _303  and  _306
REMARK  127  A    between atoms: _306  and  _307
REMARK  128  A    between atoms: _309  and  _311
REMARK  129  A    between atoms: _311  and  _312
REMARK  130  A    between atoms: _311  and  _314
REMARK  131  A    between atoms: _314  and  _315
REMARK  132  A    between atoms: _325  and  _327
REMARK  133  A    between atoms: _327  and  _328
REMARK  134  A    between atoms: _330  and  _332
REMARK  135  A    between atoms: _332  and  _333
REMARK  136  A    between atoms: _336  and  _338
REMARK  137  A    between atoms: _338  and  _339
REMARK  138  A    between atoms: _338  and  _341
REMARK  139  A    between atoms: _341  and  _342
REMARK  140  A    between atoms: _345  and  _347
REMARK  141  A    between atoms: _347  and  _348
REMARK  142  A    between atoms: _347  and  _350
REMARK  143  A    between atoms: _350  and  _351
REMARK  144  A    between atoms: _354  and  _356
REMARK  145  A    between atoms: _356  and  _357
REMARK  146  A    between atoms: _356  and  _359
REMARK  147  A    between atoms: _359  and  _360
REMARK  148  A    between atoms: _365  and  _367
REMARK  149  A    between atoms: _367  and  _368
REMARK  150  A    between atoms: _367  and  _370
REMARK  151  A    between atoms: _370  and  _371
REMARK  152  A    between atoms: _377  and  _379
REMARK  153  A    between atoms: _379  and  _380
REMARK  154  A    between atoms: _379  and  _382
REMARK  155  A    between atoms: _382  and  _383
REMARK  156  A    between atoms: _383  and  _384
REMARK  157  A    between atoms: _389  and  _391
REMARK  158  A    between atoms: _391  and  _392
REMARK  159  A    between atoms: _394  and  _396
REMARK  160  A    between atoms: _396  and  _397
REMARK  161  A    between atoms: _396  and  _399
REMARK  162  A    between atoms: _399  and  _400
REMARK  163  A    between atoms: _403  and  _405
REMARK  164  A    between atoms: _405  and  _406
REMARK  165  A    between atoms: _405  and  _408
REMARK  166  A    between atoms: _408  and  _409
REMARK  167  A    between atoms: _412  and  _414
REMARK  168  A    between atoms: _414  and  _415
REMARK  169  A    between atoms: _414  and  _417
REMARK  170  A    between atoms: _417  and  _418
REMARK  171  A    between atoms: _423  and  _424
REMARK  172  A    between atoms: _426  and  _428
REMARK  173  A    between atoms: _428  and  _429
REMARK  174  A    between atoms: _428  and  _431
REMARK  175  A    between atoms: _434  and  _436
REMARK  176  A    between atoms: _436  and  _437
REMARK  177  A    between atoms: _440  and  _442
REMARK  178  A    between atoms: _442  and  _443
REMARK  179  A    between atoms: _442  and  _445
REMARK  180  A    between atoms: _445  and  _446
REMARK  181  A    between atoms: _449  and  _451
REMARK  182  A    between atoms: _451  and  _452
REMARK  183  A    between atoms: _451  and  _454
REMARK  184  A    between atoms: _454  and  _455
REMARK  185  A    between atoms: _455  and  _456
REMARK  186  A    between atoms: _459  and  _461
REMARK  187  A    between atoms: _461  and  _462
REMARK  188  A    between atoms: _461  and  _464
REMARK  189  A    between atoms: _464  and  _465
REMARK  190  A    between atoms: _468  and  _470
REMARK  191  A    between atoms: _470  and  _471
REMARK  192  A    between atoms: _470  and  _473
REMARK  193  A    between atoms: _473  and  _474
REMARK  194  A    between atoms: _479  and  _481
REMARK  195  A    between atoms: _481  and  _482
REMARK  196  A    between atoms: _484  and  _486
REMARK  197  A    between atoms: _486  and  _487
REMARK  198  A    between atoms: _490  and  _492
REMARK  199  A    between atoms: _492  and  _493
REMARK  200  A    between atoms: _492  and  _495
REMARK  201  A    between atoms: _495  and  _496
REMARK  202  A    between atoms: _501  and  _503
REMARK  203  A    between atoms: _503  and  _504
REMARK  204  A    between atoms: _503  and  _506
REMARK  205  A    between atoms: _506  and  _507
REMARK  206  A    between atoms: _510  and  _512
REMARK  207  A    between atoms: _512  and  _513
REMARK  208  A    between atoms: _512  and  _515
REMARK  209  A    between atoms: _515  and  _516
REMARK  210  A    between atoms: _519  and  _521
REMARK  211  A    between atoms: _521  and  _522
REMARK  212  A    between atoms: _521  and  _524
REMARK  213  A    between atoms: _524  and  _525
REMARK  214  A    between atoms: _525  and  _526
REMARK  215  A    between atoms: _526  and  _527
REMARK  216  A    between atoms: _536  and  _538
REMARK  217  A    between atoms: _538  and  _539
REMARK  218  A    between atoms: _538  and  _541
REMARK  219  A    between atoms: _541  and  _542
REMARK  220  A    between atoms: _547  and  _549
REMARK  221  A    between atoms: _549  and  _550
REMARK  222  A    between atoms: _549  and  _552
REMARK  223  A    between atoms: _552  and  _553
REMARK  224  A    between atoms: _553  and  _554
REMARK  225  A    between atoms: _557  and  _559
REMARK  226  A    between atoms: _559  and  _560
REMARK  227  A    between atoms: _563  and  _565
REMARK  228  A    between atoms: _565  and  _566
REMARK  229  A    between atoms: _565  and  _568
REMARK  230  A    between atoms: _571  and  _573
REMARK  231  A    between atoms: _573  and  _574
REMARK  232  A    between atoms: _573  and  _576
REMARK  233  A    between atoms: _576  and  _577
REMARK  234  A    between atoms: _580  and  _582
REMARK  235  A    between atoms: _582  and  _583
REMARK  236  A    between atoms: _586  and  _588
REMARK  237  A    between atoms: _588  and  _589
REMARK  238  A    between atoms: _591  and  _593
REMARK  239  A    between atoms: _593  and  _594
REMARK  240  A    between atoms: _596  and  _598
REMARK  241  A    between atoms: _598  and  _599
REMARK  242  A    between atoms: _601  and  _603
REMARK  243  A    between atoms: _603  and  _604
REMARK  244  A    between atoms: _603  and  _606
REMARK  245  A    between atoms: _606  and  _607
REMARK  246  A    between atoms: _613  and  _615
REMARK  247  A    between atoms: _615  and  _616
REMARK  248  A    between atoms: _615  and  _618
REMARK  249  A    between atoms: _618  and  _619
REMARK  250  A    between atoms: _622  and  _624
REMARK  251  A    between atoms: _624  and  _625
REMARK  252  A    between atoms: _624  and  _627
REMARK  253  A    between atoms: _627  and  _628
REMARK  254  A    between atoms: _633  and  _635
REMARK  255  A    between atoms: _635  and  _636
REMARK  256  A    between atoms: _639  and  _641
REMARK  257  A    between atoms: _641  and  _642
REMARK  258  A    between atoms: _641  and  _644
REMARK  259  A    between atoms: _644  and  _645
REMARK  260  A    between atoms: _648  and  _650
REMARK  261  A    between atoms: _650  and  _651
REMARK  262  A    between atoms: _650  and  _653
REMARK  263  A    between atoms: _653  and  _654
REMARK  264  A    between atoms: _654  and  _655
REMARK  265  A    between atoms: _660  and  _662
REMARK  266  A    between atoms: _662  and  _663
REMARK  267  A    between atoms: _662  and  _665
REMARK  268  A    between atoms: _665  and  _666
REMARK                            x       y       z     vdW  Elec       q    Type
REMARK                         _______ _______ _______ _____ _____    ______ ____
ROOT
ATOM      1  CA  SER A   5     -47.179  26.817   2.472  0.00  0.00    +0.000 C 
ENDROOT
BRANCH   1   3
ATOM      2  C   GLY A   4     -46.042  26.632   0.326  0.00  0.00    +0.000 C 
ATOM      3  N   SER A   5     -46.058  27.072   1.579  0.00  0.00    +0.000 N 
ATOM      4  H   SER A   5     -45.245  27.615   1.933  0.00  0.00    +0.000 HD
ATOM      5  O   GLY A   4     -47.031  26.183  -0.230  0.00  0.00    +0.000 OA
BRANCH   2   6
ATOM      6  CA  GLY A   4     -44.729  26.809  -0.432  0.00  0.00    +0.000 C 
BRANCH   6   8
ATOM      7  C   UNK A   3     -45.244  29.130  -1.093  0.00  0.00    +0.000 C 
ATOM      8  N   GLY A   4     -44.426  28.255  -0.504  0.00  0.00    +0.000 N 
ATOM      9  H   GLY A   4     -43.542  28.603  -0.080  0.00  0.00    +0.000 HD
ATOM     10  O   UNK A   3     -46.198  28.803  -1.776  0.00  0.00    +0.000 OA
BRANCH   7  11
ATOM     11  C   UNK A   3     -44.932  30.586  -0.898  0.00  0.00    +0.000 C 
BRANCH  11  14
ATOM     12  C   GLY A   2     -45.017  30.722   1.470  0.00  0.00    +0.000 C 
ATOM     13  O   GLY A   2     -46.268  30.541   1.394  0.00  0.00    +0.000 OA
ATOM     14  N   UNK A   3     -44.261  30.750   0.383  0.00  0.00    +0.000 N 
ATOM     15  H   UNK A   3     -43.231  30.884   0.442  0.00  0.00    +0.000 HD
BRANCH  12  16
ATOM     16  CA  GLY A   2     -44.300  30.936   2.809  0.00  0.00    +0.000 C 
BRANCH  16  18
ATOM     17  C   THR A   1     -45.685  32.187   4.344  0.00  0.00    +0.000 C 
ATOM     18  N   GLY A   2     -45.171  31.019   3.987  0.00  0.00    +0.000 N 
ATOM     19  H   GLY A   2     -45.384  30.164   4.540  0.00  0.00    +0.000 HD
ATOM     20  O   THR A   1     -45.334  33.213   3.807  0.00  0.00    +0.000 OA
BRANCH  17  21
ATOM     21  CA  THR A   1     -46.737  32.234   5.465  0.00  0.00    +0.000 C 
BRANCH  21  22
ATOM     22  N   THR A   1     -46.992  33.583   5.946  0.00  0.00    +0.000 NA
ATOM     23  H   THR A   1     -47.110  34.357   5.261  0.00  0.00    +0.000 HD
ENDBRANCH  21  22
BRANCH  21  24
ATOM     24  CB  THR A   1     -48.054  31.601   5.014  0.00  0.00    +0.000 C 
ATOM     25  CG2 THR A   1     -48.638  32.338   3.803  0.00  0.00    +0.000 C 
BRANCH  24  26
ATOM     26  OG1 THR A   1     -47.798  30.245   4.653  0.00  0.00    +0.000 OA
ATOM     27  HG1 THR A   1     -48.641  29.818   4.358  0.00  0.00    +0.000 HD
ENDBRANCH  24  26
ENDBRANCH  21  24
ENDBRANCH  17  21
ENDBRANCH  16  18
ENDBRANCH  12  16
ENDBRANCH  11  14
BRANCH  11  28
ATOM     28  C   UNK A   3     -44.105  31.123  -2.061  0.00  0.00    +0.000 C 
BRANCH  28  29
ATOM     29  C   UNK A   3     -42.698  30.710  -1.972  0.00  0.00    +0.000 C 
ATOM     30  O   UNK A   3     -42.083  30.302  -3.001  0.00  0.00    +0.000 OA
BRANCH  29  31
ATOM     31  O   UNK A   3     -42.202  30.796  -0.831  0.00  0.00    +0.000 OA
BRANCH  31  32
ATOM     32 CA   UNK A   3     -40.752  29.781   0.424  0.00  0.00    +0.000 Ca
ATOM     33  O   UNK A   3     -41.469  31.369   1.827  0.00  0.00    +0.000 OA
ENDBRANCH  31  32
ENDBRANCH  29  31
ENDBRANCH  28  29
ENDBRANCH  11  28
ENDBRANCH   7  11
ENDBRANCH   6   8
ENDBRANCH   2   6
ENDBRANCH   1   3
BRANCH   1  34
ATOM     34  C   SER A   5     -48.505  27.297   1.948  0.00  0.00    +0.000 C 
ATOM     35  O   SER A   5     -49.469  26.547   1.993  0.00  0.00    +0.000 OA
ATOM     36  N   VAL A   6     -48.551  28.511   1.413  0.00  0.00    +0.000 N 
ATOM     37  H   VAL A   6     -47.672  29.059   1.320  0.00  0.00    +0.000 HD
BRANCH  36  38
ATOM     38  CA  VAL A   6     -49.801  29.091   0.954  0.00  0.00    +0.000 C 
BRANCH  38  39
ATOM     39  C   VAL A   6     -50.540  28.219  -0.061  0.00  0.00    +0.000 C 
ATOM     40  O   VAL A   6     -51.772  28.218  -0.082  0.00  0.00    +0.000 OA
ATOM     41  N   GLY A   7     -49.787  27.478  -0.871  0.00  0.00    +0.000 N 
ATOM     42  H   GLY A   7     -48.757  27.456  -0.730  0.00  0.00    +0.000 HD
BRANCH  41  43
ATOM     43  CA  GLY A   7     -50.376  26.697  -1.950  0.00  0.00    +0.000 C 
BRANCH  43  44
ATOM     44  C   GLY A   7     -51.206  25.534  -1.419  0.00  0.00    +0.000 C 
ATOM     45  N   TYR A   8     -51.018  25.139  -0.141  0.00  0.00    +0.000 N 
ATOM     46  H   TYR A   8     -50.266  25.580   0.427  0.00  0.00    +0.000 HD
ATOM     47  O   GLY A   7     -52.010  24.989  -2.168  0.00  0.00    +0.000 OA
BRANCH  45  48
ATOM     48  CA  TYR A   8     -51.855  24.102   0.454  0.00  0.00    +0.000 C 
BRANCH  48  49
ATOM     49  C   TYR A   8     -53.363  24.444   0.424  0.00  0.00    +0.000 C 
ATOM     50  O   TYR A   8     -54.208  23.585   0.092  0.00  0.00    +0.000 OA
ENDBRANCH  48  49
BRANCH  48  51
ATOM     51  CB  TYR A   8     -51.399  23.728   1.889  0.00  0.00    +0.000 C 
BRANCH  51  52
ATOM     52  CG  TYR A   8     -50.217  22.767   1.929  0.00  0.00    +0.000 A 
ATOM     53  CD2 TYR A   8     -50.409  21.378   2.051  0.00  0.00    +0.000 A 
ATOM     54  CE2 TYR A   8     -49.286  20.483   2.064  0.00  0.00    +0.000 A 
ATOM     55  CZ  TYR A   8     -47.977  20.998   1.942  0.00  0.00    +0.000 A 
ATOM     56  CE1 TYR A   8     -47.772  22.399   1.811  0.00  0.00    +0.000 A 
ATOM     57  CD1 TYR A   8     -48.875  23.259   1.809  0.00  0.00    +0.000 A 
BRANCH  55  58
ATOM     58  OH  TYR A   8     -46.863  20.154   1.957  0.00  0.00    +0.000 OA
ATOM     59  HH  TYR A   8     -46.927  19.511   1.207  0.00  0.00    +0.000 HD
ENDBRANCH  55  58
ENDBRANCH  51  52
ENDBRANCH  48  51
ENDBRANCH  45  48
ENDBRANCH  43  44
ENDBRANCH  41  43
ENDBRANCH  38  39
BRANCH  38  60
ATOM     60  CB  VAL A   6     -49.666  30.616   0.464  0.00  0.00    +0.000 C 
ATOM     61  CG2 VAL A   6     -50.983  31.364   0.735  0.00  0.00    +0.000 C 
ATOM     62  CG1 VAL A   6     -49.241  30.737  -1.029  0.00  0.00    +0.000 C 
ENDBRANCH  38  60
ENDBRANCH  36  38
ENDBRANCH   1  34
BRANCH   1  63
ATOM     63  CB  SER A   5     -46.935  27.445   3.832  0.00  0.00    +0.000 C 
BRANCH  63  64
ATOM     64  OG  SER A   5     -45.711  26.965   4.376  0.00  0.00    +0.000 OA
ATOM     65  H   SER A   5     -44.966  27.202   3.769  0.00  0.00    +0.000 HD
ENDBRANCH  63  64
ENDBRANCH   1  63
TORSDOF 28
REMARK  Name = ../refined-set-2016/3d7k/3d7k_pocket.pdb
REMARK  268 active torsions:
REMARK  status: ('A' for Active; 'I' for Inactive)
REMARK    1  A    between atoms: _1  and  _3
REMARK    2  A    between atoms: _3  and  _4
REMARK    3  A    between atoms: _3  and  _6
REMARK    4  A    between atoms: _6  and  _7
REMARK    5  A    between atoms: _10  and  _12
REMARK    6  A    between atoms: _12  and  _13
REMARK    7  A    between atoms: _12  and  _15
REMARK    8  A    between atoms: _15  and  _16
REMARK    9  A    between atoms: _20  and  _21
REMARK   10  A    between atoms: _26  and  _28
REMARK   11  A    between atoms: _28  and  _29
REMARK   12  A    between atoms: _28  and  _31
REMARK   13  A    between atoms: _31  and  _32
REMARK   14  A    between atoms: _35  and  _37
REMARK   15  A    between atoms: _37  and  _38
REMARK   16  A    between atoms: _40  and  _42
REMARK   17  A    between atoms: _42  and  _43
REMARK   18  A    between atoms: _46  and  _48
REMARK   19  A    between atoms: _48  and  _49
REMARK   20  A    between atoms: _48  and  _51
REMARK   21  A    between atoms: _51  and  _52
REMARK   22  A    between atoms: _55  and  _57
REMARK   23  A    between atoms: _57  and  _58
REMARK   24  A    between atoms: _57  and  _60
REMARK   25  A    between atoms: _60  and  _61
REMARK   26  A    between atoms: _64  and  _66
REMARK   27  A    between atoms: _66  and  _67
REMARK   28  A    between atoms: _66  and  _69
REMARK   29  A    between atoms: _69  and  _70
REMARK   30  A    between atoms: _75  and  _76
REMARK   31  A    between atoms: _78  and  _80
REMARK   32  A    between atoms: _80  and  _81
REMARK   33  A    between atoms: _80  and  _83
REMARK   34  A    between atoms: _83  and  _84
REMARK   35  A    between atoms: _87  and  _89
REMARK   36  A    between atoms: _89  and  _90
REMARK   37  A    between atoms: _89  and  _92
REMARK   38  A    between atoms: _92  and  _93
REMARK   39  A    between atoms: _103  and  _105
REMARK   40  A    between atoms: _105  and  _106
REMARK   41  A    between atoms: _105  and  _108
REMARK   42  A    between atoms: _108  and  _109
REMARK   43  A    between atoms: _112  and  _114
REMARK   44  A    between atoms: _114  and  _115
REMARK   45  A    between atoms: _114  and  _117
REMARK   46  A    between atoms: _117  and  _118
REMARK   47  A    between atoms: _123  and  _125
REMARK   48  A    between atoms: _125  and  _126
REMARK   49  A    between atoms: _128  and  _130
REMARK   50  A    between atoms: _130  and  _131
REMARK   51  A    between atoms: _130  and  _133
REMARK   52  A    between atoms: _133  and  _134
REMARK   53  A    between atoms: _139  and  _140
REMARK   54  A    between atoms: _142  and  _144
REMARK   55  A    between atoms: _144  and  _145
REMARK   56  A    between atoms: _144  and  _147
REMARK   57  A    between atoms: _147  and  _148
REMARK   58  A    between atoms: _151  and  _153
REMARK   59  A    between atoms: _153  and  _154
REMARK   60  A    between atoms: _156  and  _158
REMARK   61  A    between atoms: _158  and  _159
REMARK   62  A    between atoms: _158  and  _161
REMARK   63  A    between atoms: _161  and  _162
REMARK   64  A    between atoms: _164  and  _166
REMARK   65  A    between atoms: _166  and  _167
REMARK   66  A    between atoms: _166  and  _169
REMARK   67  A    between atoms: _169  and  _170
REMARK   68  A    between atoms: _170  and  _171
REMARK   69  A    between atoms: _173  and  _175
REMARK   70  A    between atoms: _175  and  _176
REMARK   71  A    between atoms: _178  and  _180
REMARK   72  A    between atoms: _180  and  _181
REMARK   73  A    between atoms: _180  and  _183
REMARK   74  A    between atoms: _186  and  _188
REMARK   75  A    between atoms: _188  and  _189
REMARK   76  A    between atoms: _188  and  _191
REMARK   77  A    between atoms: _191  and  _192
REMARK   78  A    between atoms: _195  and  _197
REMARK   79  A    between atoms: _197  and  _198
REMARK   80  A    between atoms: _200  and  _202
REMARK   81  A    between atoms: _202  and  _203
REMARK   82  A    between atoms: _202  and  _205
REMARK   83  A    between atoms: _205  and  _206
REMARK   84  A    between atoms: _206  and  _207
REMARK   85  A    between atoms: _207  and  CA_676
REMARK   86  A    between atoms: _209  and  _211
REMARK   87  A    between atoms: _211  and  _212
REMARK   88  A    between atoms: _214  and  _216
REMARK   89  A    between atoms: _216  and  _217
REMARK   90  A    between atoms: _216  and  _219
REMARK   91  A    between atoms: _219  and  _220
REMARK   92  A    between atoms: _222  and  _224
REMARK   93  A    between atoms: _224  and  _225
REMARK   94  A    between atoms: _224  and  _227
REMARK   95  A    between atoms: _230  and  _232
REMARK   96  A    between atoms: _232  and  _233
REMARK   97  A    between atoms: _235  and  _237
REMARK   98  A    between atoms: _237  and  _238
REMARK   99  A    between atoms: _237  and  _240
REMARK  100  A    between atoms: _240  and  _241
REMARK  101  A    between atoms: _246  and  _247
REMARK  102  A    between atoms: _249  and  _251
REMARK  103  A    between atoms: _251  and  _252
REMARK  104  A    between atoms: _251  and  _254
REMARK  105  A    between atoms: _254  and  _255
REMARK  106  A    between atoms: _258  and  _260
REMARK  107  A    between atoms: _260  and  _261
REMARK  108  A    between atoms: _260  and  _263
REMARK  109  A    between atoms: _263  and  _264
REMARK  110  A    between atoms: _264  and  _265
REMARK  111  A    between atoms: _267  and  _269
REMARK  112  A    between atoms: _269  and  _270
REMARK  113  A    between atoms: _269  and  _272
REMARK  114  A    between atoms: _272  and  _273
REMARK  115  A    between atoms: _278  and  _280
REMARK  116  A    between atoms: _280  and  _281
REMARK  117  A    between atoms: _280  and  _283
REMARK  118  A    between atoms: _283  and  _284
REMARK  119  A    between atoms: _289  and  _291
REMARK  120  A    between atoms: _291  and  _292
REMARK  121  A    between atoms: _291  and  _294
REMARK  122  A    between atoms: _294  and  _295
REMARK  123  A    between atoms: _295  and  _296
REMARK  124  A    between atoms: _301  and  _303
REMARK  125  A    between atoms: _303  and  _304
REMARK  126  A    between atoms: _303  and  _306
REMARK  127  A    between atoms: _306  and  _307
REMARK  128  A    between atoms: _309  and  _311
REMARK  129  A    between atoms: _311  and  _312
REMARK  130  A    between atoms: _311  and  _314
REMARK  131  A    between atoms: _314  and  _315
REMARK  132  A    between atoms: _325  and  _327
REMARK  133  A    between atoms: _327  and  _328
REMARK  134  A    between atoms: _330  and  _332
REMARK  135  A    between atoms: _332  and  _333
REMARK  136  A    between atoms: _336  and  _338
REMARK  137  A    between atoms: _338  and  _339
REMARK  138  A    between atoms: _338  and  _341
REMARK  139  A    between atoms: _341  and  _342
REMARK  140  A    between atoms: _345  and  _347
REMARK  141  A    between atoms: _347  and  _348
REMARK  142  A    between atoms: _347  and  _350
REMARK  143  A    between atoms: _350  and  _351
REMARK  144  A    between atoms: _354  and  _356
REMARK  145  A    between atoms: _356  and  _357
REMARK  146  A    between atoms: _356  and  _359
REMARK  147  A    between atoms: _359  and  _360
REMARK  148  A    between atoms: _365  and  _367
REMARK  149  A    between atoms: _367  and  _368
REMARK  150  A    between atoms: _367  and  _370
REMARK  151  A    between atoms: _370  and  _371
REMARK  152  A    between atoms: _377  and  _379
REMARK  153  A    between atoms: _379  and  _380
REMARK  154  A    between atoms: _379  and  _382
REMARK  155  A    between atoms: _382  and  _383
REMARK  156  A    between atoms: _383  and  _384
REMARK  157  A    between atoms: _389  and  _391
REMARK  158  A    between atoms: _391  and  _392
REMARK  159  A    between atoms: _394  and  _396
REMARK  160  A    between atoms: _396  and  _397
REMARK  161  A    between atoms: _396  and  _399
REMARK  162  A    between atoms: _399  and  _400
REMARK  163  A    between atoms: _403  and  _405
REMARK  164  A    between atoms: _405  and  _406
REMARK  165  A    between atoms: _405  and  _408
REMARK  166  A    between atoms: _408  and  _409
REMARK  167  A    between atoms: _412  and  _414
REMARK  168  A    between atoms: _414  and  _415
REMARK  169  A    between atoms: _414  and  _417
REMARK  170  A    between atoms: _417  and  _418
REMARK  171  A    between atoms: _423  and  _424
REMARK  172  A    between atoms: _426  and  _428
REMARK  173  A    between atoms: _428  and  _429
REMARK  174  A    between atoms: _428  and  _431
REMARK  175  A    between atoms: _434  and  _436
REMARK  176  A    between atoms: _436  and  _437
REMARK  177  A    between atoms: _440  and  _442
REMARK  178  A    between atoms: _442  and  _443
REMARK  179  A    between atoms: _442  and  _445
REMARK  180  A    between atoms: _445  and  _446
REMARK  181  A    between atoms: _449  and  _451
REMARK  182  A    between atoms: _451  and  _452
REMARK  183  A    between atoms: _451  and  _454
REMARK  184  A    between atoms: _454  and  _455
REMARK  185  A    between atoms: _455  and  _456
REMARK  186  A    between atoms: _459  and  _461
REMARK  187  A    between atoms: _461  and  _462
REMARK  188  A    between atoms: _461  and  _464
REMARK  189  A    between atoms: _464  and  _465
REMARK  190  A    between atoms: _468  and  _470
REMARK  191  A    between atoms: _470  and  _471
REMARK  192  A    between atoms: _470  and  _473
REMARK  193  A    between atoms: _473  and  _474
REMARK  194  A    between atoms: _479  and  _481
REMARK  195  A    between atoms: _481  and  _482
REMARK  196  A    between atoms: _484  and  _486
REMARK  197  A    between atoms: _486  and  _487
REMARK  198  A    between atoms: _490  and  _492
REMARK  199  A    between atoms: _492  and  _493
REMARK  200  A    between atoms: _492  and  _495
REMARK  201  A    between atoms: _495  and  _496
REMARK  202  A    between atoms: _501  and  _503
REMARK  203  A    between atoms: _503  and  _504
REMARK  204  A    between atoms: _503  and  _506
REMARK  205  A    between atoms: _506  and  _507
REMARK  206  A    between atoms: _510  and  _512
REMARK  207  A    between atoms: _512  and  _513
REMARK  208  A    between atoms: _512  and  _515
REMARK  209  A    between atoms: _515  and  _516
REMARK  210  A    between atoms: _519  and  _521
REMARK  211  A    between atoms: _521  and  _522
REMARK  212  A    between atoms: _521  and  _524
REMARK  213  A    between atoms: _524  and  _525
REMARK  214  A    between atoms: _525  and  _526
REMARK  215  A    between atoms: _526  and  _527
REMARK  216  A    between atoms: _536  and  _538
REMARK  217  A    between atoms: _538  and  _539
REMARK  218  A    between atoms: _538  and  _541
REMARK  219  A    between atoms: _541  and  _542
REMARK  220  A    between atoms: _547  and  _549
REMARK  221  A    between atoms: _549  and  _550
REMARK  222  A    between atoms: _549  and  _552
REMARK  223  A    between atoms: _552  and  _553
REMARK  224  A    between atoms: _553  and  _554
REMARK  225  A    between atoms: _557  and  _559
REMARK  226  A    between atoms: _559  and  _560
REMARK  227  A    between atoms: _563  and  _565
REMARK  228  A    between atoms: _565  and  _566
REMARK  229  A    between atoms: _565  and  _568
REMARK  230  A    between atoms: _571  and  _573
REMARK  231  A    between atoms: _573  and  _574
REMARK  232  A    between atoms: _573  and  _576
REMARK  233  A    between atoms: _576  and  _577
REMARK  234  A    between atoms: _580  and  _582
REMARK  235  A    between atoms: _582  and  _583
REMARK  236  A    between atoms: _586  and  _588
REMARK  237  A    between atoms: _588  and  _589
REMARK  238  A    between atoms: _591  and  _593
REMARK  239  A    between atoms: _593  and  _594
REMARK  240  A    between atoms: _596  and  _598
REMARK  241  A    between atoms: _598  and  _599
REMARK  242  A    between atoms: _601  and  _603
REMARK  243  A    between atoms: _603  and  _604
REMARK  244  A    between atoms: _603  and  _606
REMARK  245  A    between atoms: _606  and  _607
REMARK  246  A    between atoms: _613  and  _615
REMARK  247  A    between atoms: _615  and  _616
REMARK  248  A    between atoms: _615  and  _618
REMARK  249  A    between atoms: _618  and  _619
REMARK  250  A    between atoms: _622  and  _624
REMARK  251  A    between atoms: _624  and  _625
REMARK  252  A    between atoms: _624  and  _627
REMARK  253  A    between atoms: _627  and  _628
REMARK  254  A    between atoms: _633  and  _635
REMARK  255  A    between atoms: _635  and  _636
REMARK  256  A    between atoms: _639  and  _641
REMARK  257  A    between atoms: _641  and  _642
REMARK  258  A    between atoms: _641  and  _644
REMARK  259  A    between atoms: _644  and  _645
REMARK  260  A    between atoms: _648  and  _650
REMARK  261  A    between atoms: _650  and  _651
REMARK  262  A    between atoms: _650  and  _653
REMARK  263  A    between atoms: _653  and  _654
REMARK  264  A    between atoms: _654  and  _655
REMARK  265  A    between atoms: _660  and  _662
REMARK  266  A    between atoms: _662  and  _663
REMARK  267  A    between atoms: _662  and  _665
REMARK  268  A    between atoms: _665  and  _666
REMARK                            x       y       z     vdW  Elec       q    Type
REMARK                         _______ _______ _______ _____ _____    ______ ____
ROOT
ATOM      1  CA  TRP A   7     -39.460  25.449  -0.370  0.00  0.00    +0.153 C 
ENDROOT
BRANCH   1   2
ATOM      2  C   TRP A   7     -38.128  25.749   0.345  0.00  0.00    +0.241 C 
ATOM      3  N   GLY A   8     -38.095  26.872   1.042  0.00  0.00    -0.295 N 
ATOM      4  H   GLY A   8     -38.989  27.356   1.260  0.00  0.00    +0.150 HD
ATOM      5  O   TRP A   7     -37.159  24.981   0.254  0.00  0.00    -0.273 OA
BRANCH   3   6
ATOM      6  CA  GLY A   8     -36.834  27.458   1.518  0.00  0.00    +0.176 C 
BRANCH   6   7
ATOM      7  C   GLY A   8     -35.958  26.725   2.531  0.00  0.00    +0.243 C 
ATOM      8  N   ALA A   9     -36.562  26.209   3.608  0.00  0.00    -0.297 N 
ATOM      9  H   ALA A   9     -37.598  26.256   3.688  0.00  0.00    +0.150 HD
ATOM     10  O   GLY A   8     -34.715  26.640   2.347  0.00  0.00    -0.273 OA
BRANCH   8  11
ATOM     11  CA  ALA A   9     -35.776  25.573   4.685  0.00  0.00    +0.149 C 
ATOM     12  CB  ALA A   9     -36.623  25.364   5.935  0.00  0.00    +0.031 C 
BRANCH  11  13
ATOM     13  C   ALA A   9     -35.253  24.264   4.171  0.00  0.00    +0.241 C 
ATOM     14  O   ALA A   9     -34.185  23.825   4.546  0.00  0.00    -0.273 OA
ATOM     15  N   THR A  10     -36.028  23.636   3.304  0.00  0.00    -0.295 N 
ATOM     16  H   THR A  10     -36.934  24.070   3.035  0.00  0.00    +0.150 HD
BRANCH  15  17
ATOM     17  CA  THR A  10     -35.667  22.391   2.728  0.00  0.00    +0.176 C 
BRANCH  17  18
ATOM     18  C   THR A  10     -34.620  22.598   1.672  0.00  0.00    +0.243 C 
ATOM     19  O   THR A  10     -33.684  21.812   1.597  0.00  0.00    -0.273 OA
ATOM     20  N   LEU A  11     -34.759  23.632   0.841  0.00  0.00    -0.297 N 
ATOM     21  H   LEU A  11     -35.627  24.205   0.847  0.00  0.00    +0.150 HD
BRANCH  20  22
ATOM     22  CA  LEU A  11     -33.654  23.947  -0.089  0.00  0.00    +0.149 C 
BRANCH  22  23
ATOM     23  C   LEU A  11     -32.339  24.174   0.699  0.00  0.00    +0.241 C 
ATOM     24  N   HIS A  12     -32.395  25.062   1.692  0.00  0.00    -0.297 N 
ATOM     25  H   HIS A  12     -33.260  25.620   1.839  0.00  0.00    +0.150 HD
ATOM     26  O   LEU A  11     -31.306  23.500   0.445  0.00  0.00    -0.273 OA
BRANCH  24  27
ATOM     27  CA  HIS A  12     -31.241  25.255   2.579  0.00  0.00    +0.155 C 
BRANCH  27  28
ATOM     28  C   HIS A  12     -30.630  23.910   3.065  0.00  0.00    +0.241 C 
ATOM     29  N   PHE A  13     -31.496  22.968   3.458  0.00  0.00    -0.297 N 
ATOM     30  H   PHE A  13     -32.517  23.115   3.323  0.00  0.00    +0.150 HD
ATOM     31  O   HIS A  12     -29.402  23.734   3.088  0.00  0.00    -0.273 OA
BRANCH  29  32
ATOM     32  CA  PHE A  13     -31.016  21.739   4.073  0.00  0.00    +0.153 C 
BRANCH  32  33
ATOM     33  C   PHE A  13     -30.163  20.974   3.050  0.00  0.00    +0.241 C 
ATOM     34  O   PHE A  13     -29.096  20.430   3.395  0.00  0.00    -0.273 OA
ATOM     35  N   GLN A  14     -30.658  20.948   1.812  0.00  0.00    -0.298 N 
ATOM     36  H   GLN A  14     -31.536  21.470   1.617  0.00  0.00    +0.150 HD
BRANCH  35  37
ATOM     37  CA  GLN A  14     -30.020  20.217   0.716  0.00  0.00    +0.137 C 
BRANCH  37  38
ATOM     38  C   GLN A  14     -28.610  20.775   0.502  0.00  0.00    +0.227 C 
ATOM     39  O   GLN A  14     -27.684  20.071   0.139  0.00  0.00    -0.286 OA
ENDBRANCH  37  38
BRANCH  37  40
ATOM     40  CB  GLN A  14     -30.836  20.331  -0.604  0.00  0.00    +0.037 C 
BRANCH  40  41
ATOM     41  CG  GLN A  14     -32.208  19.674  -0.566  0.00  0.00    +0.087 C 
BRANCH  41  42
ATOM     42  CD  GLN A  14     -32.874  19.493  -1.948  0.00  0.00    +0.219 C 
ATOM     43  NE2 GLN A  14     -33.197  18.248  -2.281  0.00  0.00    -0.329 N 
ATOM     44 HE21 GLN A  14     -32.964  17.462  -1.642  0.00  0.00    +0.145 HD
ATOM     45 HE22 GLN A  14     -33.683  18.060  -3.181  0.00  0.00    +0.145 HD
ATOM     46  OE1 GLN A  14     -33.133  20.456  -2.679  0.00  0.00    -0.275 OA
ENDBRANCH  41  42
ENDBRANCH  40  41
ENDBRANCH  37  40
ENDBRANCH  35  37
ENDBRANCH  32  33
BRANCH  32  47
ATOM     47  CB  PHE A  13     -32.171  20.864   4.620  0.00  0.00    +0.055 C 
BRANCH  47  48
ATOM     48  CG  PHE A  13     -31.752  19.441   4.932  0.00  0.00    -0.020 A 
ATOM     49  CD2 PHE A  13     -31.290  19.101   6.191  0.00  0.00    -0.004 A 
ATOM     50  CE2 PHE A  13     -30.847  17.767   6.470  0.00  0.00    -0.000 A 
ATOM     51  CZ  PHE A  13     -30.860  16.810   5.475  0.00  0.00    -0.000 A 
ATOM     52  CE1 PHE A  13     -31.308  17.157   4.202  0.00  0.00    -0.000 A 
ATOM     53  CD1 PHE A  13     -31.755  18.466   3.940  0.00  0.00    -0.004 A 
ENDBRANCH  47  48
ENDBRANCH  32  47
ENDBRANCH  29  32
ENDBRANCH  27  28
BRANCH  27  54
ATOM     54  CB  HIS A  12     -31.645  26.092   3.781  0.00  0.00    +0.076 C 
BRANCH  54  55
ATOM     55  CG  HIS A  12     -31.682  27.564   3.517  0.00  0.00    +0.082 A 
ATOM     56  ND1 HIS A  12     -31.522  28.500   4.520  0.00  0.00    -0.227 NA
ATOM     57  CE1 HIS A  12     -31.611  29.716   4.007  0.00  0.00    +0.199 A 
ATOM     58  NE2 HIS A  12     -31.807  29.607   2.705  0.00  0.00    -0.221 NA
ATOM     59  CD2 HIS A  12     -31.874  28.267   2.377  0.00  0.00    +0.115 A 
ENDBRANCH  54  55
ENDBRANCH  27  54
ENDBRANCH  24  27
ENDBRANCH  22  23
BRANCH  22  60
ATOM     60  CB  LEU A  11     -33.976  25.135  -0.979  0.00  0.00    +0.029 C 
BRANCH  60  61
ATOM     61  CG  LEU A  11     -32.933  25.416  -2.081  0.00  0.00    +0.002 C 
ATOM     62  CD2 LEU A  11     -31.700  26.225  -1.558  0.00  0.00    +0.000 C 
ATOM     63  CD1 LEU A  11     -33.587  26.065  -3.333  0.00  0.00    +0.000 C 
ENDBRANCH  60  61
ENDBRANCH  22  60
ENDBRANCH  20  22
ENDBRANCH  17  18
BRANCH  17  64
ATOM     64  CB  THR A  10     -36.884  21.629   2.104  0.00  0.00    +0.137 C 
ATOM     65  CG2 THR A  10     -37.646  20.864   3.176  0.00  0.00    +0.034 C 
BRANCH  64  66
ATOM     66  OG1 THR A  10     -37.746  22.542   1.403  0.00  0.00    -0.382 OA
ATOM     67  HG1 THR A  10     -37.237  22.984   0.678  0.00  0.00    +0.210 HD
ENDBRANCH  64  66
ENDBRANCH  17  64
ENDBRANCH  15  17
ENDBRANCH  11  13
ENDBRANCH   8  11
ENDBRANCH   6   7
ENDBRANCH   3   6
ENDBRANCH   1   2
BRANCH   1  70
ATOM     68  C   SER A   6     -39.461  27.360  -1.914  0.00  0.00    +0.243 C 
ATOM     69  O   SER A   6     -40.082  28.140  -1.199  0.00  0.00    -0.273 OA
ATOM     70  N   TRP A   7     -39.303  26.062  -1.679  0.00  0.00    -0.297 N 
ATOM     71  H   TRP A   7     -39.052  25.447  -2.480  0.00  0.00    +0.150 HD
BRANCH  68  72
ATOM     72  CA  SER A   6     -38.856  27.836  -3.202  0.00  0.00    +0.178 C 
BRANCH  72  74
ATOM     73  C   GLN A   5     -39.107  29.726  -4.719  0.00  0.00    +0.241 C 
ATOM     74  N   SER A   6     -39.394  29.168  -3.545  0.00  0.00    -0.295 N 
ATOM     75  H   SER A   6     -40.000  29.672  -2.866  0.00  0.00    +0.150 HD
ATOM     76  O   GLN A   5     -38.442  29.154  -5.592  0.00  0.00    -0.273 OA
BRANCH  73  77
ATOM     77  CA  GLN A   5     -39.645  31.121  -4.947  0.00  0.00    +0.149 C 
BRANCH  77  80
ATOM     78  C   ASN A   4     -38.487  32.238  -3.024  0.00  0.00    +0.241 C 
ATOM     79  O   ASN A   4     -37.404  31.644  -3.140  0.00  0.00    -0.273 OA
ATOM     80  N   GLN A   5     -39.585  31.985  -3.742  0.00  0.00    -0.297 N 
ATOM     81  H   GLN A   5     -40.471  32.431  -3.430  0.00  0.00    +0.150 HD
BRANCH  78  82
ATOM     82  CA  ASN A   4     -38.679  33.319  -1.989  0.00  0.00    +0.158 C 
BRANCH  82  84
ATOM     83  C   ASN A   3     -40.778  34.645  -1.937  0.00  0.00    +0.241 C 
ATOM     84  N   ASN A   4     -40.118  33.500  -1.698  0.00  0.00    -0.297 N 
ATOM     85  H   ASN A   4     -40.644  32.702  -1.288  0.00  0.00    +0.150 HD
ATOM     86  O   ASN A   3     -40.235  35.669  -2.435  0.00  0.00    -0.273 OA
BRANCH  83  87
ATOM     87  CA  ASN A   3     -42.274  34.647  -1.568  0.00  0.00    +0.158 C 
BRANCH  87  90
ATOM     88  C   MET A   2     -42.561  34.747   0.810  0.00  0.00    +0.241 C 
ATOM     89  O   MET A   2     -42.171  33.600   0.962  0.00  0.00    -0.273 OA
ATOM     90  N   ASN A   3     -42.558  35.358  -0.358  0.00  0.00    -0.297 N 
ATOM     91  H   ASN A   3     -42.766  36.376  -0.402  0.00  0.00    +0.150 HD
BRANCH  88  92
ATOM     92  CA  MET A   2     -43.032  35.563   1.986  0.00  0.00    +0.149 C 
BRANCH  92  94
ATOM     93  C   ILE A   1     -45.321  35.925   1.370  0.00  0.00    +0.238 C 
ATOM     94  N   MET A   2     -44.448  35.319   2.163  0.00  0.00    -0.297 N 
ATOM     95  H   MET A   2     -44.778  34.672   2.908  0.00  0.00    +0.150 HD
ATOM     96  O   ILE A   1     -44.987  36.801   0.586  0.00  0.00    -0.274 OA
BRANCH  93  97
ATOM     97  CA  ILE A   1     -46.780  35.510   1.483  0.00  0.00    +0.145 C 
BRANCH  97  98
ATOM     98  N   ILE A   1     -47.514  36.642   2.012  0.00  0.00    -0.238 NA
ATOM     99  H   ILE A   1     -47.694  37.449   1.381  0.00  0.00    +0.142 HD
ENDBRANCH  97  98
BRANCH  97 100
ATOM    100  CB  ILE A   1     -47.305  35.110   0.072  0.00  0.00    +0.025 C 
ATOM    101  CG2 ILE A   1     -46.517  33.958  -0.513  0.00  0.00    +0.002 C 
BRANCH 100 102
ATOM    102  CG1 ILE A   1     -48.814  34.832   0.089  0.00  0.00    +0.002 C 
ATOM    103  CD1 ILE A   1     -49.400  34.387  -1.247  0.00  0.00    +0.000 C 
ENDBRANCH 100 102
ENDBRANCH  97 100
ENDBRANCH  93  97
ENDBRANCH  92  94
BRANCH  92 104
ATOM    104  CB  MET A   2     -42.228  35.205   3.232  0.00  0.00    +0.041 C 
BRANCH 104 105
ATOM    105  CG  MET A   2     -42.453  36.119   4.427  0.00  0.00    +0.060 C 
BRANCH 105 106
ATOM    106  SD  MET A   2     -42.389  37.925   4.079  0.00  0.00    -0.139 S 
ATOM    107  CE  MET A   2     -43.198  38.609   5.524  0.00  0.00    +0.069 C 
ENDBRANCH 105 106
ENDBRANCH 104 105
ENDBRANCH  92 104
ENDBRANCH  88  92
ENDBRANCH  87  90
BRANCH  87 108
ATOM    108  CB  ASN A   3     -43.177  35.200  -2.679  0.00  0.00    +0.114 C 
BRANCH 108 109
ATOM    109  CG  ASN A   3     -43.044  34.446  -3.973  0.00  0.00    +0.222 C 
ATOM    110  OD1 ASN A   3     -42.151  33.609  -4.126  0.00  0.00    -0.275 OA
ATOM    111  ND2 ASN A   3     -43.953  34.723  -4.920  0.00  0.00    -0.329 N 
ATOM    112 HD21 ASN A   3     -44.687  35.438  -4.743  0.00  0.00    +0.145 HD
ATOM    113 HD22 ASN A   3     -43.923  34.223  -5.831  0.00  0.00    +0.145 HD
ENDBRANCH 108 109
ENDBRANCH  87 108
ENDBRANCH  83  87
ENDBRANCH  82  84
BRANCH  82 114
ATOM    114  CB  ASN A   4     -37.837  33.028  -0.715  0.00  0.00    +0.114 C 
BRANCH 114 115
ATOM    115  CG  ASN A   4     -38.270  31.713   0.032  0.00  0.00    +0.222 C 
ATOM    116  ND2 ASN A   4     -37.797  31.565   1.270  0.00  0.00    -0.329 N 
ATOM    117 HD21 ASN A   4     -38.045  30.720   1.824  0.00  0.00    +0.145 HD
ATOM    118 HD22 ASN A   4     -37.180  32.294   1.682  0.00  0.00    +0.145 HD
ATOM    119  OD1 ASN A   4     -39.012  30.861  -0.497  0.00  0.00    -0.275 OA
ENDBRANCH 114 115
ENDBRANCH  82 114
ENDBRANCH  78  82
ENDBRANCH  77  80
BRANCH  77 120
ATOM    120  CB  GLN A   5     -38.925  31.772  -6.123  0.00  0.00    +0.039 C 
BRANCH 120 121
ATOM    121  CG  GLN A   5     -39.292  33.243  -6.307  0.00  0.00    +0.087 C 
BRANCH 121 122
ATOM    122  CD  GLN A   5     -39.370  33.631  -7.760  0.00  0.00    +0.219 C 
ATOM    123  NE2 GLN A   5     -38.393  34.408  -8.225  0.00  0.00    -0.329 N 
ATOM    124 HE21 GLN A   5     -37.634  34.726  -7.589  0.00  0.00    +0.145 HD
ATOM    125 HE22 GLN A   5     -38.389  34.697  -9.224  0.00  0.00    +0.145 HD
ATOM    126  OE1 GLN A   5     -40.297  33.223  -8.468  0.00  0.00    -0.275 OA
ENDBRANCH 121 122
ENDBRANCH 120 121
ENDBRANCH  77 120
ENDBRANCH  73  77
ENDBRANCH  72  74
BRANCH  72 127
ATOM    127  CB  SER A   6     -37.332  27.859  -3.038  0.00  0.00    +0.166 C 
BRANCH 127 128
ATOM    128  OG  SER A   6     -37.020  28.749  -1.995  0.00  0.00    -0.380 OA
ATOM    129  H   SER A   6     -37.353  29.653  -2.223  0.00  0.00    +0.211 HD
ENDBRANCH 127 128
ENDBRANCH  72 127
ENDBRANCH  68  72
ENDBRANCH   1  70
BRANCH   1 130
ATOM    130  CB  TRP A   7     -39.647  23.937  -0.508  0.00  0.00    +0.057 C 
BRANCH 130 131
ATOM    131  CG  TRP A   7     -40.839  23.468  -1.265  0.00  0.00    -0.002 A 
ATOM    132  CD2 TRP A   7     -42.223  23.437  -0.822  0.00  0.00    +0.013 A 
ATOM    133  CE3 TRP A   7     -42.888  23.820   0.369  0.00  0.00    +0.001 A 
ATOM    134  CZ3 TRP A   7     -44.300  23.622   0.461  0.00  0.00    +0.000 A 
ATOM    135  CH2 TRP A   7     -45.018  23.057  -0.630  0.00  0.00    +0.001 A 
ATOM    136  CZ2 TRP A   7     -44.371  22.660  -1.781  0.00  0.00    +0.017 A 
ATOM    137  CE2 TRP A   7     -42.981  22.861  -1.866  0.00  0.00    +0.056 A 
ATOM    138  NE1 TRP A   7     -42.108  22.556  -2.882  0.00  0.00    -0.352 N 
ATOM    139  HE1 TRP A   7     -42.375  22.128  -3.792  0.00  0.00    +0.166 HD
ATOM    140  CD1 TRP A   7     -40.825  22.902  -2.514  0.00  0.00    +0.068 A 
ENDBRANCH 130 131
ENDBRANCH   1 130
TORSDOF 55
REMARK  Name = ../refined-set-2016/3d7k/3d7k_pocket.pdb
REMARK  268 active torsions:
REMARK  status: ('A' for Active; 'I' for Inactive)
REMARK    1  A    between atoms: _1  and  _3
REMARK    2  A    between atoms: _3  and  _4
REMARK    3  A    between atoms: _3  and  _6
REMARK    4  A    between atoms: _6  and  _7
REMARK    5  A    between atoms: _10  and  _12
REMARK    6  A    between atoms: _12  and  _13
REMARK    7  A    between atoms: _12  and  _15
REMARK    8  A    between atoms: _15  and  _16
REMARK    9  A    between atoms: _20  and  _21
REMARK   10  A    between atoms: _26  and  _28
REMARK   11  A    between atoms: _28  and  _29
REMARK   12  A    between atoms: _28  and  _31
REMARK   13  A    between atoms: _31  and  _32
REMARK   14  A    between atoms: _35  and  _37
REMARK   15  A    between atoms: _37  and  _38
REMARK   16  A    between atoms: _40  and  _42
REMARK   17  A    between atoms: _42  and  _43
REMARK   18  A    between atoms: _46  and  _48
REMARK   19  A    between atoms: _48  and  _49
REMARK   20  A    between atoms: _48  and  _51
REMARK   21  A    between atoms: _51  and  _52
REMARK   22  A    between atoms: _55  and  _57
REMARK   23  A    between atoms: _57  and  _58
REMARK   24  A    between atoms: _57  and  _60
REMARK   25  A    between atoms: _60  and  _61
REMARK   26  A    between atoms: _64  and  _66
REMARK   27  A    between atoms: _66  and  _67
REMARK   28  A    between atoms: _66  and  _69
REMARK   29  A    between atoms: _69  and  _70
REMARK   30  A    between atoms: _75  and  _76
REMARK   31  A    between atoms: _78  and  _80
REMARK   32  A    between atoms: _80  and  _81
REMARK   33  A    between atoms: _80  and  _83
REMARK   34  A    between atoms: _83  and  _84
REMARK   35  A    between atoms: _87  and  _89
REMARK   36  A    between atoms: _89  and  _90
REMARK   37  A    between atoms: _89  and  _92
REMARK   38  A    between atoms: _92  and  _93
REMARK   39  A    between atoms: _103  and  _105
REMARK   40  A    between atoms: _105  and  _106
REMARK   41  A    between atoms: _105  and  _108
REMARK   42  A    between atoms: _108  and  _109
REMARK   43  A    between atoms: _112  and  _114
REMARK   44  A    between atoms: _114  and  _115
REMARK   45  A    between atoms: _114  and  _117
REMARK   46  A    between atoms: _117  and  _118
REMARK   47  A    between atoms: _123  and  _125
REMARK   48  A    between atoms: _125  and  _126
REMARK   49  A    between atoms: _128  and  _130
REMARK   50  A    between atoms: _130  and  _131
REMARK   51  A    between atoms: _130  and  _133
REMARK   52  A    between atoms: _133  and  _134
REMARK   53  A    between atoms: _139  and  _140
REMARK   54  A    between atoms: _142  and  _144
REMARK   55  A    between atoms: _144  and  _145
REMARK   56  A    between atoms: _144  and  _147
REMARK   57  A    between atoms: _147  and  _148
REMARK   58  A    between atoms: _151  and  _153
REMARK   59  A    between atoms: _153  and  _154
REMARK   60  A    between atoms: _156  and  _158
REMARK   61  A    between atoms: _158  and  _159
REMARK   62  A    between atoms: _158  and  _161
REMARK   63  A    between atoms: _161  and  _162
REMARK   64  A    between atoms: _164  and  _166
REMARK   65  A    between atoms: _166  and  _167
REMARK   66  A    between atoms: _166  and  _169
REMARK   67  A    between atoms: _169  and  _170
REMARK   68  A    between atoms: _170  and  _171
REMARK   69  A    between atoms: _173  and  _175
REMARK   70  A    between atoms: _175  and  _176
REMARK   71  A    between atoms: _178  and  _180
REMARK   72  A    between atoms: _180  and  _181
REMARK   73  A    between atoms: _180  and  _183
REMARK   74  A    between atoms: _186  and  _188
REMARK   75  A    between atoms: _188  and  _189
REMARK   76  A    between atoms: _188  and  _191
REMARK   77  A    between atoms: _191  and  _192
REMARK   78  A    between atoms: _195  and  _197
REMARK   79  A    between atoms: _197  and  _198
REMARK   80  A    between atoms: _200  and  _202
REMARK   81  A    between atoms: _202  and  _203
REMARK   82  A    between atoms: _202  and  _205
REMARK   83  A    between atoms: _205  and  _206
REMARK   84  A    between atoms: _206  and  _207
REMARK   85  A    between atoms: _207  and  CA_676
REMARK   86  A    between atoms: _209  and  _211
REMARK   87  A    between atoms: _211  and  _212
REMARK   88  A    between atoms: _214  and  _216
REMARK   89  A    between atoms: _216  and  _217
REMARK   90  A    between atoms: _216  and  _219
REMARK   91  A    between atoms: _219  and  _220
REMARK   92  A    between atoms: _222  and  _224
REMARK   93  A    between atoms: _224  and  _225
REMARK   94  A    between atoms: _224  and  _227
REMARK   95  A    between atoms: _230  and  _232
REMARK   96  A    between atoms: _232  and  _233
REMARK   97  A    between atoms: _235  and  _237
REMARK   98  A    between atoms: _237  and  _238
REMARK   99  A    between atoms: _237  and  _240
REMARK  100  A    between atoms: _240  and  _241
REMARK  101  A    between atoms: _246  and  _247
REMARK  102  A    between atoms: _249  and  _251
REMARK  103  A    between atoms: _251  and  _252
REMARK  104  A    between atoms: _251  and  _254
REMARK  105  A    between atoms: _254  and  _255
REMARK  106  A    between atoms: _258  and  _260
REMARK  107  A    between atoms: _260  and  _261
REMARK  108  A    between atoms: _260  and  _263
REMARK  109  A    between atoms: _263  and  _264
REMARK  110  A    between atoms: _264  and  _265
REMARK  111  A    between atoms: _267  and  _269
REMARK  112  A    between atoms: _269  and  _270
REMARK  113  A    between atoms: _269  and  _272
REMARK  114  A    between atoms: _272  and  _273
REMARK  115  A    between atoms: _278  and  _280
REMARK  116  A    between atoms: _280  and  _281
REMARK  117  A    between atoms: _280  and  _283
REMARK  118  A    between atoms: _283  and  _284
REMARK  119  A    between atoms: _289  and  _291
REMARK  120  A    between atoms: _291  and  _292
REMARK  121  A    between atoms: _291  and  _294
REMARK  122  A    between atoms: _294  and  _295
REMARK  123  A    between atoms: _295  and  _296
REMARK  124  A    between atoms: _301  and  _303
REMARK  125  A    between atoms: _303  and  _304
REMARK  126  A    between atoms: _303  and  _306
REMARK  127  A    between atoms: _306  and  _307
REMARK  128  A    between atoms: _309  and  _311
REMARK  129  A    between atoms: _311  and  _312
REMARK  130  A    between atoms: _311  and  _314
REMARK  131  A    between atoms: _314  and  _315
REMARK  132  A    between atoms: _325  and  _327
REMARK  133  A    between atoms: _327  and  _328
REMARK  134  A    between atoms: _330  and  _332
REMARK  135  A    between atoms: _332  and  _333
REMARK  136  A    between atoms: _336  and  _338
REMARK  137  A    between atoms: _338  and  _339
REMARK  138  A    between atoms: _338  and  _341
REMARK  139  A    between atoms: _341  and  _342
REMARK  140  A    between atoms: _345  and  _347
REMARK  141  A    between atoms: _347  and  _348
REMARK  142  A    between atoms: _347  and  _350
REMARK  143  A    between atoms: _350  and  _351
REMARK  144  A    between atoms: _354  and  _356
REMARK  145  A    between atoms: _356  and  _357
REMARK  146  A    between atoms: _356  and  _359
REMARK  147  A    between atoms: _359  and  _360
REMARK  148  A    between atoms: _365  and  _367
REMARK  149  A    between atoms: _367  and  _368
REMARK  150  A    between atoms: _367  and  _370
REMARK  151  A    between atoms: _370  and  _371
REMARK  152  A    between atoms: _377  and  _379
REMARK  153  A    between atoms: _379  and  _380
REMARK  154  A    between atoms: _379  and  _382
REMARK  155  A    between atoms: _382  and  _383
REMARK  156  A    between atoms: _383  and  _384
REMARK  157  A    between atoms: _389  and  _391
REMARK  158  A    between atoms: _391  and  _392
REMARK  159  A    between atoms: _394  and  _396
REMARK  160  A    between atoms: _396  and  _397
REMARK  161  A    between atoms: _396  and  _399
REMARK  162  A    between atoms: _399  and  _400
REMARK  163  A    between atoms: _403  and  _405
REMARK  164  A    between atoms: _405  and  _406
REMARK  165  A    between atoms: _405  and  _408
REMARK  166  A    between atoms: _408  and  _409
REMARK  167  A    between atoms: _412  and  _414
REMARK  168  A    between atoms: _414  and  _415
REMARK  169  A    between atoms: _414  and  _417
REMARK  170  A    between atoms: _417  and  _418
REMARK  171  A    between atoms: _423  and  _424
REMARK  172  A    between atoms: _426  and  _428
REMARK  173  A    between atoms: _428  and  _429
REMARK  174  A    between atoms: _428  and  _431
REMARK  175  A    between atoms: _434  and  _436
REMARK  176  A    between atoms: _436  and  _437
REMARK  177  A    between atoms: _440  and  _442
REMARK  178  A    between atoms: _442  and  _443
REMARK  179  A    between atoms: _442  and  _445
REMARK  180  A    between atoms: _445  and  _446
REMARK  181  A    between atoms: _449  and  _451
REMARK  182  A    between atoms: _451  and  _452
REMARK  183  A    between atoms: _451  and  _454
REMARK  184  A    between atoms: _454  and  _455
REMARK  185  A    between atoms: _455  and  _456
REMARK  186  A    between atoms: _459  and  _461
REMARK  187  A    between atoms: _461  and  _462
REMARK  188  A    between atoms: _461  and  _464
REMARK  189  A    between atoms: _464  and  _465
REMARK  190  A    between atoms: _468  and  _470
REMARK  191  A    between atoms: _470  and  _471
REMARK  192  A    between atoms: _470  and  _473
REMARK  193  A    between atoms: _473  and  _474
REMARK  194  A    between atoms: _479  and  _481
REMARK  195  A    between atoms: _481  and  _482
REMARK  196  A    between atoms: _484  and  _486
REMARK  197  A    between atoms: _486  and  _487
REMARK  198  A    between atoms: _490  and  _492
REMARK  199  A    between atoms: _492  and  _493
REMARK  200  A    between atoms: _492  and  _495
REMARK  201  A    between atoms: _495  and  _496
REMARK  202  A    between atoms: _501  and  _503
REMARK  203  A    between atoms: _503  and  _504
REMARK  204  A    between atoms: _503  and  _506
REMARK  205  A    between atoms: _506  and  _507
REMARK  206  A    between atoms: _510  and  _512
REMARK  207  A    between atoms: _512  and  _513
REMARK  208  A    between atoms: _512  and  _515
REMARK  209  A    between atoms: _515  and  _516
REMARK  210  A    between atoms: _519  and  _521
REMARK  211  A    between atoms: _521  and  _522
REMARK  212  A    between atoms: _521  and  _524
REMARK  213  A    between atoms: _524  and  _525
REMARK  214  A    between atoms: _525  and  _526
REMARK  215  A    between atoms: _526  and  _527
REMARK  216  A    between atoms: _536  and  _538
REMARK  217  A    between atoms: _538  and  _539
REMARK  218  A    between atoms: _538  and  _541
REMARK  219  A    between atoms: _541  and  _542
REMARK  220  A    between atoms: _547  and  _549
REMARK  221  A    between atoms: _549  and  _550
REMARK  222  A    between atoms: _549  and  _552
REMARK  223  A    between atoms: _552  and  _553
REMARK  224  A    between atoms: _553  and  _554
REMARK  225  A    between atoms: _557  and  _559
REMARK  226  A    between atoms: _559  and  _560
REMARK  227  A    between atoms: _563  and  _565
REMARK  228  A    between atoms: _565  and  _566
REMARK  229  A    between atoms: _565  and  _568
REMARK  230  A    between atoms: _571  and  _573
REMARK  231  A    between atoms: _573  and  _574
REMARK  232  A    between atoms: _573  and  _576
REMARK  233  A    between atoms: _576  and  _577
REMARK  234  A    between atoms: _580  and  _582
REMARK  235  A    between atoms: _582  and  _583
REMARK  236  A    between atoms: _586  and  _588
REMARK  237  A    between atoms: _588  and  _589
REMARK  238  A    between atoms: _591  and  _593
REMARK  239  A    between atoms: _593  and  _594
REMARK  240  A    between atoms: _596  and  _598
REMARK  241  A    between atoms: _598  and  _599
REMARK  242  A    between atoms: _601  and  _603
REMARK  243  A    between atoms: _603  and  _604
REMARK  244  A    between atoms: _603  and  _606
REMARK  245  A    between atoms: _606  and  _607
REMARK  246  A    between atoms: _613  and  _615
REMARK  247  A    between atoms: _615  and  _616
REMARK  248  A    between atoms: _615  and  _618
REMARK  249  A    between atoms: _618  and  _619
REMARK  250  A    between atoms: _622  and  _624
REMARK  251  A    between atoms: _624  and  _625
REMARK  252  A    between atoms: _624  and  _627
REMARK  253  A    between atoms: _627  and  _628
REMARK  254  A    between atoms: _633  and  _635
REMARK  255  A    between atoms: _635  and  _636
REMARK  256  A    between atoms: _639  and  _641
REMARK  257  A    between atoms: _641  and  _642
REMARK  258  A    between atoms: _641  and  _644
REMARK  259  A    between atoms: _644  and  _645
REMARK  260  A    between atoms: _648  and  _650
REMARK  261  A    between atoms: _650  and  _651
REMARK  262  A    between atoms: _650  and  _653
REMARK  263  A    between atoms: _653  and  _654
REMARK  264  A    between atoms: _654  and  _655
REMARK  265  A    between atoms: _660  and  _662
REMARK  266  A    between atoms: _662  and  _663
REMARK  267  A    between atoms: _662  and  _665
REMARK  268  A    between atoms: _665  and  _666
REMARK                            x       y       z     vdW  Elec       q    Type
REMARK                         _______ _______ _______ _____ _____    ______ ____
ROOT
ATOM      1  C   GLY A   1     -37.879  20.369  -4.900  0.00  0.00    +0.240 C 
ATOM      2  O   GLY A   1     -38.888  20.282  -4.233  0.00  0.00    -0.274 OA
ATOM      3  N   THR A   2     -37.055  21.399  -4.814  0.00  0.00    -0.296 N 
ATOM      4  H   THR A   2     -36.240  21.477  -5.456  0.00  0.00    +0.150 HD
ENDROOT
BRANCH   1   5
ATOM      5  CA  GLY A   1     -37.518  19.276  -5.878  0.00  0.00    +0.169 C 
BRANCH   5   6
ATOM      6  N   GLY A   1     -36.154  19.375  -6.351  0.00  0.00    -0.236 NA
ATOM      7  H   GLY A   1     -35.981  19.706  -7.322  0.00  0.00    +0.142 HD
ENDBRANCH   5   6
ENDBRANCH   1   5
BRANCH   3   8
ATOM      8  CA  THR A   2     -37.301  22.415  -3.817  0.00  0.00    +0.164 C 
BRANCH   8   9
ATOM      9  CB  THR A   2     -36.236  22.362  -2.742  0.00  0.00    +0.136 C 
ATOM     10  CG2 THR A   2     -36.393  21.086  -1.894  0.00  0.00    +0.034 C 
BRANCH   9  11
ATOM     11  OG1 THR A   2     -34.965  22.333  -3.377  0.00  0.00    -0.382 OA
ATOM     12  HG1 THR A   2     -34.254  22.298  -2.689  0.00  0.00    +0.210 HD
ENDBRANCH   9  11
ENDBRANCH   8   9
BRANCH   8  13
ATOM     13  C   THR A   2     -37.418  23.835  -4.376  0.00  0.00    +0.229 C 
ATOM     14  O   THR A   2     -37.547  24.781  -3.604  0.00  0.00    -0.286 OA
ENDBRANCH   8  13
ENDBRANCH   3   8
TORSDOF 6
REMARK  Name = ../refined-set-2016/3d7k/3d7k_pocket.pdb
REMARK  268 active torsions:
REMARK  status: ('A' for Active; 'I' for Inactive)
REMARK    1  A    between atoms: _1  and  _3
REMARK    2  A    between atoms: _3  and  _4
REMARK    3  A    between atoms: _3  and  _6
REMARK    4  A    between atoms: _6  and  _7
REMARK    5  A    between atoms: _10  and  _12
REMARK    6  A    between atoms: _12  and  _13
REMARK    7  A    between atoms: _12  and  _15
REMARK    8  A    between atoms: _15  and  _16
REMARK    9  A    between atoms: _20  and  _21
REMARK   10  A    between atoms: _26  and  _28
REMARK   11  A    between atoms: _28  and  _29
REMARK   12  A    between atoms: _28  and  _31
REMARK   13  A    between atoms: _31  and  _32
REMARK   14  A    between atoms: _35  and  _37
REMARK   15  A    between atoms: _37  and  _38
REMARK   16  A    between atoms: _40  and  _42
REMARK   17  A    between atoms: _42  and  _43
REMARK   18  A    between atoms: _46  and  _48
REMARK   19  A    between atoms: _48  and  _49
REMARK   20  A    between atoms: _48  and  _51
REMARK   21  A    between atoms: _51  and  _52
REMARK   22  A    between atoms: _55  and  _57
REMARK   23  A    between atoms: _57  and  _58
REMARK   24  A    between atoms: _57  and  _60
REMARK   25  A    between atoms: _60  and  _61
REMARK   26  A    between atoms: _64  and  _66
REMARK   27  A    between atoms: _66  and  _67
REMARK   28  A    between atoms: _66  and  _69
REMARK   29  A    between atoms: _69  and  _70
REMARK   30  A    between atoms: _75  and  _76
REMARK   31  A    between atoms: _78  and  _80
REMARK   32  A    between atoms: _80  and  _81
REMARK   33  A    between atoms: _80  and  _83
REMARK   34  A    between atoms: _83  and  _84
REMARK   35  A    between atoms: _87  and  _89
REMARK   36  A    between atoms: _89  and  _90
REMARK   37  A    between atoms: _89  and  _92
REMARK   38  A    between atoms: _92  and  _93
REMARK   39  A    between atoms: _103  and  _105
REMARK   40  A    between atoms: _105  and  _106
REMARK   41  A    between atoms: _105  and  _108
REMARK   42  A    between atoms: _108  and  _109
REMARK   43  A    between atoms: _112  and  _114
REMARK   44  A    between atoms: _114  and  _115
REMARK   45  A    between atoms: _114  and  _117
REMARK   46  A    between atoms: _117  and  _118
REMARK   47  A    between atoms: _123  and  _125
REMARK   48  A    between atoms: _125  and  _126
REMARK   49  A    between atoms: _128  and  _130
REMARK   50  A    between atoms: _130  and  _131
REMARK   51  A    between atoms: _130  and  _133
REMARK   52  A    between atoms: _133  and  _134
REMARK   53  A    between atoms: _139  and  _140
REMARK   54  A    between atoms: _142  and  _144
REMARK   55  A    between atoms: _144  and  _145
REMARK   56  A    between atoms: _144  and  _147
REMARK   57  A    between atoms: _147  and  _148
REMARK   58  A    between atoms: _151  and  _153
REMARK   59  A    between atoms: _153  and  _154
REMARK   60  A    between atoms: _156  and  _158
REMARK   61  A    between atoms: _158  and  _159
REMARK   62  A    between atoms: _158  and  _161
REMARK   63  A    between atoms: _161  and  _162
REMARK   64  A    between atoms: _164  and  _166
REMARK   65  A    between atoms: _166  and  _167
REMARK   66  A    between atoms: _166  and  _169
REMARK   67  A    between atoms: _169  and  _170
REMARK   68  A    between atoms: _170  and  _171
REMARK   69  A    between atoms: _173  and  _175
REMARK   70  A    between atoms: _175  and  _176
REMARK   71  A    between atoms: _178  and  _180
REMARK   72  A    between atoms: _180  and  _181
REMARK   73  A    between atoms: _180  and  _183
REMARK   74  A    between atoms: _186  and  _188
REMARK   75  A    between atoms: _188  and  _189
REMARK   76  A    between atoms: _188  and  _191
REMARK   77  A    between atoms: _191  and  _192
REMARK   78  A    between atoms: _195  and  _197
REMARK   79  A    between atoms: _197  and  _198
REMARK   80  A    between atoms: _200  and  _202
REMARK   81  A    between atoms: _202  and  _203
REMARK   82  A    between atoms: _202  and  _205
REMARK   83  A    between atoms: _205  and  _206
REMARK   84  A    between atoms: _206  and  _207
REMARK   85  A    between atoms: _207  and  CA_676
REMARK   86  A    between atoms: _209  and  _211
REMARK   87  A    between atoms: _211  and  _212
REMARK   88  A    between atoms: _214  and  _216
REMARK   89  A    between atoms: _216  and  _217
REMARK   90  A    between atoms: _216  and  _219
REMARK   91  A    between atoms: _219  and  _220
REMARK   92  A    between atoms: _222  and  _224
REMARK   93  A    between atoms: _224  and  _225
REMARK   94  A    between atoms: _224  and  _227
REMARK   95  A    between atoms: _230  and  _232
REMARK   96  A    between atoms: _232  and  _233
REMARK   97  A    between atoms: _235  and  _237
REMARK   98  A    between atoms: _237  and  _238
REMARK   99  A    between atoms: _237  and  _240
REMARK  100  A    between atoms: _240  and  _241
REMARK  101  A    between atoms: _246  and  _247
REMARK  102  A    between atoms: _249  and  _251
REMARK  103  A    between atoms: _251  and  _252
REMARK  104  A    between atoms: _251  and  _254
REMARK  105  A    between atoms: _254  and  _255
REMARK  106  A    between atoms: _258  and  _260
REMARK  107  A    between atoms: _260  and  _261
REMARK  108  A    between atoms: _260  and  _263
REMARK  109  A    between atoms: _263  and  _264
REMARK  110  A    between atoms: _264  and  _265
REMARK  111  A    between atoms: _267  and  _269
REMARK  112  A    between atoms: _269  and  _270
REMARK  113  A    between atoms: _269  and  _272
REMARK  114  A    between atoms: _272  and  _273
REMARK  115  A    between atoms: _278  and  _280
REMARK  116  A    between atoms: _280  and  _281
REMARK  117  A    between atoms: _280  and  _283
REMARK  118  A    between atoms: _283  and  _284
REMARK  119  A    between atoms: _289  and  _291
REMARK  120  A    between atoms: _291  and  _292
REMARK  121  A    between atoms: _291  and  _294
REMARK  122  A    between atoms: _294  and  _295
REMARK  123  A    between atoms: _295  and  _296
REMARK  124  A    between atoms: _301  and  _303
REMARK  125  A    between atoms: _303  and  _304
REMARK  126  A    between atoms: _303  and  _306
REMARK  127  A    between atoms: _306  and  _307
REMARK  128  A    between atoms: _309  and  _311
REMARK  129  A    between atoms: _311  and  _312
REMARK  130  A    between atoms: _311  and  _314
REMARK  131  A    between atoms: _314  and  _315
REMARK  132  A    between atoms: _325  and  _327
REMARK  133  A    between atoms: _327  and  _328
REMARK  134  A    between atoms: _330  and  _332
REMARK  135  A    between atoms: _332  and  _333
REMARK  136  A    between atoms: _336  and  _338
REMARK  137  A    between atoms: _338  and  _339
REMARK  138  A    between atoms: _338  and  _341
REMARK  139  A    between atoms: _341  and  _342
REMARK  140  A    between atoms: _345  and  _347
REMARK  141  A    between atoms: _347  and  _348
REMARK  142  A    between atoms: _347  and  _350
REMARK  143  A    between atoms: _350  and  _351
REMARK  144  A    between atoms: _354  and  _356
REMARK  145  A    between atoms: _356  and  _357
REMARK  146  A    between atoms: _356  and  _359
REMARK  147  A    between atoms: _359  and  _360
REMARK  148  A    between atoms: _365  and  _367
REMARK  149  A    between atoms: _367  and  _368
REMARK  150  A    between atoms: _367  and  _370
REMARK  151  A    between atoms: _370  and  _371
REMARK  152  A    between atoms: _377  and  _379
REMARK  153  A    between atoms: _379  and  _380
REMARK  154  A    between atoms: _379  and  _382
REMARK  155  A    between atoms: _382  and  _383
REMARK  156  A    between atoms: _383  and  _384
REMARK  157  A    between atoms: _389  and  _391
REMARK  158  A    between atoms: _391  and  _392
REMARK  159  A    between atoms: _394  and  _396
REMARK  160  A    between atoms: _396  and  _397
REMARK  161  A    between atoms: _396  and  _399
REMARK  162  A    between atoms: _399  and  _400
REMARK  163  A    between atoms: _403  and  _405
REMARK  164  A    between atoms: _405  and  _406
REMARK  165  A    between atoms: _405  and  _408
REMARK  166  A    between atoms: _408  and  _409
REMARK  167  A    between atoms: _412  and  _414
REMARK  168  A    between atoms: _414  and  _415
REMARK  169  A    between atoms: _414  and  _417
REMARK  170  A    between atoms: _417  and  _418
REMARK  171  A    between atoms: _423  and  _424
REMARK  172  A    between atoms: _426  and  _428
REMARK  173  A    between atoms: _428  and  _429
REMARK  174  A    between atoms: _428  and  _431
REMARK  175  A    between atoms: _434  and  _436
REMARK  176  A    between atoms: _436  and  _437
REMARK  177  A    between atoms: _440  and  _442
REMARK  178  A    between atoms: _442  and  _443
REMARK  179  A    between atoms: _442  and  _445
REMARK  180  A    between atoms: _445  and  _446
REMARK  181  A    between atoms: _449  and  _451
REMARK  182  A    between atoms: _451  and  _452
REMARK  183  A    between atoms: _451  and  _454
REMARK  184  A    between atoms: _454  and  _455
REMARK  185  A    between atoms: _455  and  _456
REMARK  186  A    between atoms: _459  and  _461
REMARK  187  A    between atoms: _461  and  _462
REMARK  188  A    between atoms: _461  and  _464
REMARK  189  A    between atoms: _464  and  _465
REMARK  190  A    between atoms: _468  and  _470
REMARK  191  A    between atoms: _470  and  _471
REMARK  192  A    between atoms: _470  and  _473
REMARK  193  A    between atoms: _473  and  _474
REMARK  194  A    between atoms: _479  and  _481
REMARK  195  A    between atoms: _481  and  _482
REMARK  196  A    between atoms: _484  and  _486
REMARK  197  A    between atoms: _486  and  _487
REMARK  198  A    between atoms: _490  and  _492
REMARK  199  A    between atoms: _492  and  _493
REMARK  200  A    between atoms: _492  and  _495
REMARK  201  A    between atoms: _495  and  _496
REMARK  202  A    between atoms: _501  and  _503
REMARK  203  A    between atoms: _503  and  _504
REMARK  204  A    between atoms: _503  and  _506
REMARK  205  A    between atoms: _506  and  _507
REMARK  206  A    between atoms: _510  and  _512
REMARK  207  A    between atoms: _512  and  _513
REMARK  208  A    between atoms: _512  and  _515
REMARK  209  A    between atoms: _515  and  _516
REMARK  210  A    between atoms: _519  and  _521
REMARK  211  A    between atoms: _521  and  _522
REMARK  212  A    between atoms: _521  and  _524
REMARK  213  A    between atoms: _524  and  _525
REMARK  214  A    between atoms: _525  and  _526
REMARK  215  A    between atoms: _526  and  _527
REMARK  216  A    between atoms: _536  and  _538
REMARK  217  A    between atoms: _538  and  _539
REMARK  218  A    between atoms: _538  and  _541
REMARK  219  A    between atoms: _541  and  _542
REMARK  220  A    between atoms: _547  and  _549
REMARK  221  A    between atoms: _549  and  _550
REMARK  222  A    between atoms: _549  and  _552
REMARK  223  A    between atoms: _552  and  _553
REMARK  224  A    between atoms: _553  and  _554
REMARK  225  A    between atoms: _557  and  _559
REMARK  226  A    between atoms: _559  and  _560
REMARK  227  A    between atoms: _563  and  _565
REMARK  228  A    between atoms: _565  and  _566
REMARK  229  A    between atoms: _565  and  _568
REMARK  230  A    between atoms: _571  and  _573
REMARK  231  A    between atoms: _573  and  _574
REMARK  232  A    between atoms: _573  and  _576
REMARK  233  A    between atoms: _576  and  _577
REMARK  234  A    between atoms: _580  and  _582
REMARK  235  A    between atoms: _582  and  _583
REMARK  236  A    between atoms: _586  and  _588
REMARK  237  A    between atoms: _588  and  _589
REMARK  238  A    between atoms: _591  and  _593
REMARK  239  A    between atoms: _593  and  _594
REMARK  240  A    between atoms: _596  and  _598
REMARK  241  A    between atoms: _598  and  _599
REMARK  242  A    between atoms: _601  and  _603
REMARK  243  A    between atoms: _603  and  _604
REMARK  244  A    between atoms: _603  and  _606
REMARK  245  A    between atoms: _606  and  _607
REMARK  246  A    between atoms: _613  and  _615
REMARK  247  A    between atoms: _615  and  _616
REMARK  248  A    between atoms: _615  and  _618
REMARK  249  A    between atoms: _618  and  _619
REMARK  250  A    between atoms: _622  and  _624
REMARK  251  A    between atoms: _624  and  _625
REMARK  252  A    between atoms: _624  and  _627
REMARK  253  A    between atoms: _627  and  _628
REMARK  254  A    between atoms: _633  and  _635
REMARK  255  A    between atoms: _635  and  _636
REMARK  256  A    between atoms: _639  and  _641
REMARK  257  A    between atoms: _641  and  _642
REMARK  258  A    between atoms: _641  and  _644
REMARK  259  A    between atoms: _644  and  _645
REMARK  260  A    between atoms: _648  and  _650
REMARK  261  A    between atoms: _650  and  _651
REMARK  262  A    between atoms: _650  and  _653
REMARK  263  A    between atoms: _653  and  _654
REMARK  264  A    between atoms: _654  and  _655
REMARK  265  A    between atoms: _660  and  _662
REMARK  266  A    between atoms: _662  and  _663
REMARK  267  A    between atoms: _662  and  _665
REMARK  268  A    between atoms: _665  and  _666
REMARK                            x       y       z     vdW  Elec       q    Type
REMARK                         _______ _______ _______ _____ _____    ______ ____
ROOT
ATOM      1  CA  LEU A   1     -40.893  26.996  -6.862  0.00  0.00    +0.133 C 
ENDROOT
BRANCH   1   2
ATOM      2  N   LEU A   1     -39.534  26.665  -6.474  0.00  0.00    -0.239 NA
ATOM      3  H   LEU A   1     -38.931  27.403  -6.058  0.00  0.00    +0.142 HD
ENDBRANCH   1   2
BRANCH   1   4
ATOM      4  C   LEU A   1     -40.878  28.280  -7.691  0.00  0.00    +0.224 C 
ATOM      5  O   LEU A   1     -41.401  29.299  -7.281  0.00  0.00    -0.287 OA
ENDBRANCH   1   4
BRANCH   1   6
ATOM      6  CB  LEU A   1     -41.776  27.124  -5.600  0.00  0.00    +0.025 C 
BRANCH   6   7
ATOM      7  CG  LEU A   1     -42.139  25.841  -4.816  0.00  0.00    +0.002 C 
ATOM      8  CD2 LEU A   1     -43.082  26.116  -3.653  0.00  0.00    +0.000 C 
ATOM      9  CD1 LEU A   1     -42.759  24.817  -5.774  0.00  0.00    +0.000 C 
ENDBRANCH   6   7
ENDBRANCH   1   6
TORSDOF 4
REMARK  Name = ../refined-set-2016/3d7k/3d7k_pocket.pdb
REMARK  268 active torsions:
REMARK  status: ('A' for Active; 'I' for Inactive)
REMARK    1  A    between atoms: _1  and  _3
REMARK    2  A    between atoms: _3  and  _4
REMARK    3  A    between atoms: _3  and  _6
REMARK    4  A    between atoms: _6  and  _7
REMARK    5  A    between atoms: _10  and  _12
REMARK    6  A    between atoms: _12  and  _13
REMARK    7  A    between atoms: _12  and  _15
REMARK    8  A    between atoms: _15  and  _16
REMARK    9  A    between atoms: _20  and  _21
REMARK   10  A    between atoms: _26  and  _28
REMARK   11  A    between atoms: _28  and  _29
REMARK   12  A    between atoms: _28  and  _31
REMARK   13  A    between atoms: _31  and  _32
REMARK   14  A    between atoms: _35  and  _37
REMARK   15  A    between atoms: _37  and  _38
REMARK   16  A    between atoms: _40  and  _42
REMARK   17  A    between atoms: _42  and  _43
REMARK   18  A    between atoms: _46  and  _48
REMARK   19  A    between atoms: _48  and  _49
REMARK   20  A    between atoms: _48  and  _51
REMARK   21  A    between atoms: _51  and  _52
REMARK   22  A    between atoms: _55  and  _57
REMARK   23  A    between atoms: _57  and  _58
REMARK   24  A    between atoms: _57  and  _60
REMARK   25  A    between atoms: _60  and  _61
REMARK   26  A    between atoms: _64  and  _66
REMARK   27  A    between atoms: _66  and  _67
REMARK   28  A    between atoms: _66  and  _69
REMARK   29  A    between atoms: _69  and  _70
REMARK   30  A    between atoms: _75  and  _76
REMARK   31  A    between atoms: _78  and  _80
REMARK   32  A    between atoms: _80  and  _81
REMARK   33  A    between atoms: _80  and  _83
REMARK   34  A    between atoms: _83  and  _84
REMARK   35  A    between atoms: _87  and  _89
REMARK   36  A    between atoms: _89  and  _90
REMARK   37  A    between atoms: _89  and  _92
REMARK   38  A    between atoms: _92  and  _93
REMARK   39  A    between atoms: _103  and  _105
REMARK   40  A    between atoms: _105  and  _106
REMARK   41  A    between atoms: _105  and  _108
REMARK   42  A    between atoms: _108  and  _109
REMARK   43  A    between atoms: _112  and  _114
REMARK   44  A    between atoms: _114  and  _115
REMARK   45  A    between atoms: _114  and  _117
REMARK   46  A    between atoms: _117  and  _118
REMARK   47  A    between atoms: _123  and  _125
REMARK   48  A    between atoms: _125  and  _126
REMARK   49  A    between atoms: _128  and  _130
REMARK   50  A    between atoms: _130  and  _131
REMARK   51  A    between atoms: _130  and  _133
REMARK   52  A    between atoms: _133  and  _134
REMARK   53  A    between atoms: _139  and  _140
REMARK   54  A    between atoms: _142  and  _144
REMARK   55  A    between atoms: _144  and  _145
REMARK   56  A    between atoms: _144  and  _147
REMARK   57  A    between atoms: _147  and  _148
REMARK   58  A    between atoms: _151  and  _153
REMARK   59  A    between atoms: _153  and  _154
REMARK   60  A    between atoms: _156  and  _158
REMARK   61  A    between atoms: _158  and  _159
REMARK   62  A    between atoms: _158  and  _161
REMARK   63  A    between atoms: _161  and  _162
REMARK   64  A    between atoms: _164  and  _166
REMARK   65  A    between atoms: _166  and  _167
REMARK   66  A    between atoms: _166  and  _169
REMARK   67  A    between atoms: _169  and  _170
REMARK   68  A    between atoms: _170  and  _171
REMARK   69  A    between atoms: _173  and  _175
REMARK   70  A    between atoms: _175  and  _176
REMARK   71  A    between atoms: _178  and  _180
REMARK   72  A    between atoms: _180  and  _181
REMARK   73  A    between atoms: _180  and  _183
REMARK   74  A    between atoms: _186  and  _188
REMARK   75  A    between atoms: _188  and  _189
REMARK   76  A    between atoms: _188  and  _191
REMARK   77  A    between atoms: _191  and  _192
REMARK   78  A    between atoms: _195  and  _197
REMARK   79  A    between atoms: _197  and  _198
REMARK   80  A    between atoms: _200  and  _202
REMARK   81  A    between atoms: _202  and  _203
REMARK   82  A    between atoms: _202  and  _205
REMARK   83  A    between atoms: _205  and  _206
REMARK   84  A    between atoms: _206  and  _207
REMARK   85  A    between atoms: _207  and  CA_676
REMARK   86  A    between atoms: _209  and  _211
REMARK   87  A    between atoms: _211  and  _212
REMARK   88  A    between atoms: _214  and  _216
REMARK   89  A    between atoms: _216  and  _217
REMARK   90  A    between atoms: _216  and  _219
REMARK   91  A    between atoms: _219  and  _220
REMARK   92  A    between atoms: _222  and  _224
REMARK   93  A    between atoms: _224  and  _225
REMARK   94  A    between atoms: _224  and  _227
REMARK   95  A    between atoms: _230  and  _232
REMARK   96  A    between atoms: _232  and  _233
REMARK   97  A    between atoms: _235  and  _237
REMARK   98  A    between atoms: _237  and  _238
REMARK   99  A    between atoms: _237  and  _240
REMARK  100  A    between atoms: _240  and  _241
REMARK  101  A    between atoms: _246  and  _247
REMARK  102  A    between atoms: _249  and  _251
REMARK  103  A    between atoms: _251  and  _252
REMARK  104  A    between atoms: _251  and  _254
REMARK  105  A    between atoms: _254  and  _255
REMARK  106  A    between atoms: _258  and  _260
REMARK  107  A    between atoms: _260  and  _261
REMARK  108  A    between atoms: _260  and  _263
REMARK  109  A    between atoms: _263  and  _264
REMARK  110  A    between atoms: _264  and  _265
REMARK  111  A    between atoms: _267  and  _269
REMARK  112  A    between atoms: _269  and  _270
REMARK  113  A    between atoms: _269  and  _272
REMARK  114  A    between atoms: _272  and  _273
REMARK  115  A    between atoms: _278  and  _280
REMARK  116  A    between atoms: _280  and  _281
REMARK  117  A    between atoms: _280  and  _283
REMARK  118  A    between atoms: _283  and  _284
REMARK  119  A    between atoms: _289  and  _291
REMARK  120  A    between atoms: _291  and  _292
REMARK  121  A    between atoms: _291  and  _294
REMARK  122  A    between atoms: _294  and  _295
REMARK  123  A    between atoms: _295  and  _296
REMARK  124  A    between atoms: _301  and  _303
REMARK  125  A    between atoms: _303  and  _304
REMARK  126  A    between atoms: _303  and  _306
REMARK  127  A    between atoms: _306  and  _307
REMARK  128  A    between atoms: _309  and  _311
REMARK  129  A    between atoms: _311  and  _312
REMARK  130  A    between atoms: _311  and  _314
REMARK  131  A    between atoms: _314  and  _315
REMARK  132  A    between atoms: _325  and  _327
REMARK  133  A    between atoms: _327  and  _328
REMARK  134  A    between atoms: _330  and  _332
REMARK  135  A    between atoms: _332  and  _333
REMARK  136  A    between atoms: _336  and  _338
REMARK  137  A    between atoms: _338  and  _339
REMARK  138  A    between atoms: _338  and  _341
REMARK  139  A    between atoms: _341  and  _342
REMARK  140  A    between atoms: _345  and  _347
REMARK  141  A    between atoms: _347  and  _348
REMARK  142  A    between atoms: _347  and  _350
REMARK  143  A    between atoms: _350  and  _351
REMARK  144  A    between atoms: _354  and  _356
REMARK  145  A    between atoms: _356  and  _357
REMARK  146  A    between atoms: _356  and  _359
REMARK  147  A    between atoms: _359  and  _360
REMARK  148  A    between atoms: _365  and  _367
REMARK  149  A    between atoms: _367  and  _368
REMARK  150  A    between atoms: _367  and  _370
REMARK  151  A    between atoms: _370  and  _371
REMARK  152  A    between atoms: _377  and  _379
REMARK  153  A    between atoms: _379  and  _380
REMARK  154  A    between atoms: _379  and  _382
REMARK  155  A    between atoms: _382  and  _383
REMARK  156  A    between atoms: _383  and  _384
REMARK  157  A    between atoms: _389  and  _391
REMARK  158  A    between atoms: _391  and  _392
REMARK  159  A    between atoms: _394  and  _396
REMARK  160  A    between atoms: _396  and  _397
REMARK  161  A    between atoms: _396  and  _399
REMARK  162  A    between atoms: _399  and  _400
REMARK  163  A    between atoms: _403  and  _405
REMARK  164  A    between atoms: _405  and  _406
REMARK  165  A    between atoms: _405  and  _408
REMARK  166  A    between atoms: _408  and  _409
REMARK  167  A    between atoms: _412  and  _414
REMARK  168  A    between atoms: _414  and  _415
REMARK  169  A    between atoms: _414  and  _417
REMARK  170  A    between atoms: _417  and  _418
REMARK  171  A    between atoms: _423  and  _424
REMARK  172  A    between atoms: _426  and  _428
REMARK  173  A    between atoms: _428  and  _429
REMARK  174  A    between atoms: _428  and  _431
REMARK  175  A    between atoms: _434  and  _436
REMARK  176  A    between atoms: _436  and  _437
REMARK  177  A    between atoms: _440  and  _442
REMARK  178  A    between atoms: _442  and  _443
REMARK  179  A    between atoms: _442  and  _445
REMARK  180  A    between atoms: _445  and  _446
REMARK  181  A    between atoms: _449  and  _451
REMARK  182  A    between atoms: _451  and  _452
REMARK  183  A    between atoms: _451  and  _454
REMARK  184  A    between atoms: _454  and  _455
REMARK  185  A    between atoms: _455  and  _456
REMARK  186  A    between atoms: _459  and  _461
REMARK  187  A    between atoms: _461  and  _462
REMARK  188  A    between atoms: _461  and  _464
REMARK  189  A    between atoms: _464  and  _465
REMARK  190  A    between atoms: _468  and  _470
REMARK  191  A    between atoms: _470  and  _471
REMARK  192  A    between atoms: _470  and  _473
REMARK  193  A    between atoms: _473  and  _474
REMARK  194  A    between atoms: _479  and  _481
REMARK  195  A    between atoms: _481  and  _482
REMARK  196  A    between atoms: _484  and  _486
REMARK  197  A    between atoms: _486  and  _487
REMARK  198  A    between atoms: _490  and  _492
REMARK  199  A    between atoms: _492  and  _493
REMARK  200  A    between atoms: _492  and  _495
REMARK  201  A    between atoms: _495  and  _496
REMARK  202  A    between atoms: _501  and  _503
REMARK  203  A    between atoms: _503  and  _504
REMARK  204  A    between atoms: _503  and  _506
REMARK  205  A    between atoms: _506  and  _507
REMARK  206  A    between atoms: _510  and  _512
REMARK  207  A    between atoms: _512  and  _513
REMARK  208  A    between atoms: _512  and  _515
REMARK  209  A    between atoms: _515  and  _516
REMARK  210  A    between atoms: _519  and  _521
REMARK  211  A    between atoms: _521  and  _522
REMARK  212  A    between atoms: _521  and  _524
REMARK  213  A    between atoms: _524  and  _525
REMARK  214  A    between atoms: _525  and  _526
REMARK  215  A    between atoms: _526  and  _527
REMARK  216  A    between atoms: _536  and  _538
REMARK  217  A    between atoms: _538  and  _539
REMARK  218  A    between atoms: _538  and  _541
REMARK  219  A    between atoms: _541  and  _542
REMARK  220  A    between atoms: _547  and  _549
REMARK  221  A    between atoms: _549  and  _550
REMARK  222  A    between atoms: _549  and  _552
REMARK  223  A    between atoms: _552  and  _553
REMARK  224  A    between atoms: _553  and  _554
REMARK  225  A    between atoms: _557  and  _559
REMARK  226  A    between atoms: _559  and  _560
REMARK  227  A    between atoms: _563  and  _565
REMARK  228  A    between atoms: _565  and  _566
REMARK  229  A    between atoms: _565  and  _568
REMARK  230  A    between atoms: _571  and  _573
REMARK  231  A    between atoms: _573  and  _574
REMARK  232  A    between atoms: _573  and  _576
REMARK  233  A    between atoms: _576  and  _577
REMARK  234  A    between atoms: _580  and  _582
REMARK  235  A    between atoms: _582  and  _583
REMARK  236  A    between atoms: _586  and  _588
REMARK  237  A    between atoms: _588  and  _589
REMARK  238  A    between atoms: _591  and  _593
REMARK  239  A    between atoms: _593  and  _594
REMARK  240  A    between atoms: _596  and  _598
REMARK  241  A    between atoms: _598  and  _599
REMARK  242  A    between atoms: _601  and  _603
REMARK  243  A    between atoms: _603  and  _604
REMARK  244  A    between atoms: _603  and  _606
REMARK  245  A    between atoms: _606  and  _607
REMARK  246  A    between atoms: _613  and  _615
REMARK  247  A    between atoms: _615  and  _616
REMARK  248  A    between atoms: _615  and  _618
REMARK  249  A    between atoms: _618  and  _619
REMARK  250  A    between atoms: _622  and  _624
REMARK  251  A    between atoms: _624  and  _625
REMARK  252  A    between atoms: _624  and  _627
REMARK  253  A    between atoms: _627  and  _628
REMARK  254  A    between atoms: _633  and  _635
REMARK  255  A    between atoms: _635  and  _636
REMARK  256  A    between atoms: _639  and  _641
REMARK  257  A    between atoms: _641  and  _642
REMARK  258  A    between atoms: _641  and  _644
REMARK  259  A    between atoms: _644  and  _645
REMARK  260  A    between atoms: _648  and  _650
REMARK  261  A    between atoms: _650  and  _651
REMARK  262  A    between atoms: _650  and  _653
REMARK  263  A    between atoms: _653  and  _654
REMARK  264  A    between atoms: _654  and  _655
REMARK  265  A    between atoms: _660  and  _662
REMARK  266  A    between atoms: _662  and  _663
REMARK  267  A    between atoms: _662  and  _665
REMARK  268  A    between atoms: _665  and  _666
REMARK                            x       y       z     vdW  Elec       q    Type
REMARK                         _______ _______ _______ _____ _____    ______ ____
ROOT
ATOM      1  CG  TYR A   1     -48.730  32.901  -4.733  0.00  0.00    -0.020 A 
ATOM      2  CD2 TYR A   1     -47.367  33.118  -4.735  0.00  0.00    -0.001 A 
ATOM      3  CE2 TYR A   1     -46.460  32.072  -4.851  0.00  0.00    +0.036 A 
ATOM      4  CZ  TYR A   1     -46.894  30.775  -4.986  0.00  0.00    +0.134 A 
ATOM      5  CE1 TYR A   1     -48.260  30.510  -4.984  0.00  0.00    +0.036 A 
ATOM      6  CD1 TYR A   1     -49.181  31.578  -4.872  0.00  0.00    -0.001 A 
ENDROOT
BRANCH   4   7
ATOM      7  OH  TYR A   1     -45.924  29.761  -5.123  0.00  0.00    -0.506 OA
ATOM      8  HH  TYR A   1     -45.378  29.935  -5.931  0.00  0.00    +0.292 HD
ENDBRANCH   4   7
BRANCH   1   9
ATOM      9  CB  TYR A   1     -49.698  34.065  -4.583  0.00  0.00    +0.051 C 
BRANCH   9  10
ATOM     10  CA  TYR A   1     -50.376  34.411  -5.893  0.00  0.00    +0.137 C 
BRANCH  10  11
ATOM     11  N   TYR A   1     -49.393  34.684  -6.949  0.00  0.00    -0.239 NA
ATOM     12  H   TYR A   1     -48.391  34.819  -6.707  0.00  0.00    +0.142 HD
ENDBRANCH  10  11
BRANCH  10  13
ATOM     13  C   TYR A   1     -51.383  35.515  -5.708  0.00  0.00    +0.224 C 
ATOM     14  O   TYR A   1     -52.546  35.241  -5.493  0.00  0.00    -0.287 OA
ENDBRANCH  10  13
ENDBRANCH   9  10
ENDBRANCH   1   9
TORSDOF 5
REMARK  Name = ../refined-set-2016/3d7k/3d7k_pocket.pdb
REMARK  268 active torsions:
REMARK  status: ('A' for Active; 'I' for Inactive)
REMARK    1  A    between atoms: _1  and  _3
REMARK    2  A    between atoms: _3  and  _4
REMARK    3  A    between atoms: _3  and  _6
REMARK    4  A    between atoms: _6  and  _7
REMARK    5  A    between atoms: _10  and  _12
REMARK    6  A    between atoms: _12  and  _13
REMARK    7  A    between atoms: _12  and  _15
REMARK    8  A    between atoms: _15  and  _16
REMARK    9  A    between atoms: _20  and  _21
REMARK   10  A    between atoms: _26  and  _28
REMARK   11  A    between atoms: _28  and  _29
REMARK   12  A    between atoms: _28  and  _31
REMARK   13  A    between atoms: _31  and  _32
REMARK   14  A    between atoms: _35  and  _37
REMARK   15  A    between atoms: _37  and  _38
REMARK   16  A    between atoms: _40  and  _42
REMARK   17  A    between atoms: _42  and  _43
REMARK   18  A    between atoms: _46  and  _48
REMARK   19  A    between atoms: _48  and  _49
REMARK   20  A    between atoms: _48  and  _51
REMARK   21  A    between atoms: _51  and  _52
REMARK   22  A    between atoms: _55  and  _57
REMARK   23  A    between atoms: _57  and  _58
REMARK   24  A    between atoms: _57  and  _60
REMARK   25  A    between atoms: _60  and  _61
REMARK   26  A    between atoms: _64  and  _66
REMARK   27  A    between atoms: _66  and  _67
REMARK   28  A    between atoms: _66  and  _69
REMARK   29  A    between atoms: _69  and  _70
REMARK   30  A    between atoms: _75  and  _76
REMARK   31  A    between atoms: _78  and  _80
REMARK   32  A    between atoms: _80  and  _81
REMARK   33  A    between atoms: _80  and  _83
REMARK   34  A    between atoms: _83  and  _84
REMARK   35  A    between atoms: _87  and  _89
REMARK   36  A    between atoms: _89  and  _90
REMARK   37  A    between atoms: _89  and  _92
REMARK   38  A    between atoms: _92  and  _93
REMARK   39  A    between atoms: _103  and  _105
REMARK   40  A    between atoms: _105  and  _106
REMARK   41  A    between atoms: _105  and  _108
REMARK   42  A    between atoms: _108  and  _109
REMARK   43  A    between atoms: _112  and  _114
REMARK   44  A    between atoms: _114  and  _115
REMARK   45  A    between atoms: _114  and  _117
REMARK   46  A    between atoms: _117  and  _118
REMARK   47  A    between atoms: _123  and  _125
REMARK   48  A    between atoms: _125  and  _126
REMARK   49  A    between atoms: _128  and  _130
REMARK   50  A    between atoms: _130  and  _131
REMARK   51  A    between atoms: _130  and  _133
REMARK   52  A    between atoms: _133  and  _134
REMARK   53  A    between atoms: _139  and  _140
REMARK   54  A    between atoms: _142  and  _144
REMARK   55  A    between atoms: _144  and  _145
REMARK   56  A    between atoms: _144  and  _147
REMARK   57  A    between atoms: _147  and  _148
REMARK   58  A    between atoms: _151  and  _153
REMARK   59  A    between atoms: _153  and  _154
REMARK   60  A    between atoms: _156  and  _158
REMARK   61  A    between atoms: _158  and  _159
REMARK   62  A    between atoms: _158  and  _161
REMARK   63  A    between atoms: _161  and  _162
REMARK   64  A    between atoms: _164  and  _166
REMARK   65  A    between atoms: _166  and  _167
REMARK   66  A    between atoms: _166  and  _169
REMARK   67  A    between atoms: _169  and  _170
REMARK   68  A    between atoms: _170  and  _171
REMARK   69  A    between atoms: _173  and  _175
REMARK   70  A    between atoms: _175  and  _176
REMARK   71  A    between atoms: _178  and  _180
REMARK   72  A    between atoms: _180  and  _181
REMARK   73  A    between atoms: _180  and  _183
REMARK   74  A    between atoms: _186  and  _188
REMARK   75  A    between atoms: _188  and  _189
REMARK   76  A    between atoms: _188  and  _191
REMARK   77  A    between atoms: _191  and  _192
REMARK   78  A    between atoms: _195  and  _197
REMARK   79  A    between atoms: _197  and  _198
REMARK   80  A    between atoms: _200  and  _202
REMARK   81  A    between atoms: _202  and  _203
REMARK   82  A    between atoms: _202  and  _205
REMARK   83  A    between atoms: _205  and  _206
REMARK   84  A    between atoms: _206  and  _207
REMARK   85  A    between atoms: _207  and  CA_676
REMARK   86  A    between atoms: _209  and  _211
REMARK   87  A    between atoms: _211  and  _212
REMARK   88  A    between atoms: _214  and  _216
REMARK   89  A    between atoms: _216  and  _217
REMARK   90  A    between atoms: _216  and  _219
REMARK   91  A    between atoms: _219  and  _220
REMARK   92  A    between atoms: _222  and  _224
REMARK   93  A    between atoms: _224  and  _225
REMARK   94  A    between atoms: _224  and  _227
REMARK   95  A    between atoms: _230  and  _232
REMARK   96  A    between atoms: _232  and  _233
REMARK   97  A    between atoms: _235  and  _237
REMARK   98  A    between atoms: _237  and  _238
REMARK   99  A    between atoms: _237  and  _240
REMARK  100  A    between atoms: _240  and  _241
REMARK  101  A    between atoms: _246  and  _247
REMARK  102  A    between atoms: _249  and  _251
REMARK  103  A    between atoms: _251  and  _252
REMARK  104  A    between atoms: _251  and  _254
REMARK  105  A    between atoms: _254  and  _255
REMARK  106  A    between atoms: _258  and  _260
REMARK  107  A    between atoms: _260  and  _261
REMARK  108  A    between atoms: _260  and  _263
REMARK  109  A    between atoms: _263  and  _264
REMARK  110  A    between atoms: _264  and  _265
REMARK  111  A    between atoms: _267  and  _269
REMARK  112  A    between atoms: _269  and  _270
REMARK  113  A    between atoms: _269  and  _272
REMARK  114  A    between atoms: _272  and  _273
REMARK  115  A    between atoms: _278  and  _280
REMARK  116  A    between atoms: _280  and  _281
REMARK  117  A    between atoms: _280  and  _283
REMARK  118  A    between atoms: _283  and  _284
REMARK  119  A    between atoms: _289  and  _291
REMARK  120  A    between atoms: _291  and  _292
REMARK  121  A    between atoms: _291  and  _294
REMARK  122  A    between atoms: _294  and  _295
REMARK  123  A    between atoms: _295  and  _296
REMARK  124  A    between atoms: _301  and  _303
REMARK  125  A    between atoms: _303  and  _304
REMARK  126  A    between atoms: _303  and  _306
REMARK  127  A    between atoms: _306  and  _307
REMARK  128  A    between atoms: _309  and  _311
REMARK  129  A    between atoms: _311  and  _312
REMARK  130  A    between atoms: _311  and  _314
REMARK  131  A    between atoms: _314  and  _315
REMARK  132  A    between atoms: _325  and  _327
REMARK  133  A    between atoms: _327  and  _328
REMARK  134  A    between atoms: _330  and  _332
REMARK  135  A    between atoms: _332  and  _333
REMARK  136  A    between atoms: _336  and  _338
REMARK  137  A    between atoms: _338  and  _339
REMARK  138  A    between atoms: _338  and  _341
REMARK  139  A    between atoms: _341  and  _342
REMARK  140  A    between atoms: _345  and  _347
REMARK  141  A    between atoms: _347  and  _348
REMARK  142  A    between atoms: _347  and  _350
REMARK  143  A    between atoms: _350  and  _351
REMARK  144  A    between atoms: _354  and  _356
REMARK  145  A    between atoms: _356  and  _357
REMARK  146  A    between atoms: _356  and  _359
REMARK  147  A    between atoms: _359  and  _360
REMARK  148  A    between atoms: _365  and  _367
REMARK  149  A    between atoms: _367  and  _368
REMARK  150  A    between atoms: _367  and  _370
REMARK  151  A    between atoms: _370  and  _371
REMARK  152  A    between atoms: _377  and  _379
REMARK  153  A    between atoms: _379  and  _380
REMARK  154  A    between atoms: _379  and  _382
REMARK  155  A    between atoms: _382  and  _383
REMARK  156  A    between atoms: _383  and  _384
REMARK  157  A    between atoms: _389  and  _391
REMARK  158  A    between atoms: _391  and  _392
REMARK  159  A    between atoms: _394  and  _396
REMARK  160  A    between atoms: _396  and  _397
REMARK  161  A    between atoms: _396  and  _399
REMARK  162  A    between atoms: _399  and  _400
REMARK  163  A    between atoms: _403  and  _405
REMARK  164  A    between atoms: _405  and  _406
REMARK  165  A    between atoms: _405  and  _408
REMARK  166  A    between atoms: _408  and  _409
REMARK  167  A    between atoms: _412  and  _414
REMARK  168  A    between atoms: _414  and  _415
REMARK  169  A    between atoms: _414  and  _417
REMARK  170  A    between atoms: _417  and  _418
REMARK  171  A    between atoms: _423  and  _424
REMARK  172  A    between atoms: _426  and  _428
REMARK  173  A    between atoms: _428  and  _429
REMARK  174  A    between atoms: _428  and  _431
REMARK  175  A    between atoms: _434  and  _436
REMARK  176  A    between atoms: _436  and  _437
REMARK  177  A    between atoms: _440  and  _442
REMARK  178  A    between atoms: _442  and  _443
REMARK  179  A    between atoms: _442  and  _445
REMARK  180  A    between atoms: _445  and  _446
REMARK  181  A    between atoms: _449  and  _451
REMARK  182  A    between atoms: _451  and  _452
REMARK  183  A    between atoms: _451  and  _454
REMARK  184  A    between atoms: _454  and  _455
REMARK  185  A    between atoms: _455  and  _456
REMARK  186  A    between atoms: _459  and  _461
REMARK  187  A    between atoms: _461  and  _462
REMARK  188  A    between atoms: _461  and  _464
REMARK  189  A    between atoms: _464  and  _465
REMARK  190  A    between atoms: _468  and  _470
REMARK  191  A    between atoms: _470  and  _471
REMARK  192  A    between atoms: _470  and  _473
REMARK  193  A    between atoms: _473  and  _474
REMARK  194  A    between atoms: _479  and  _481
REMARK  195  A    between atoms: _481  and  _482
REMARK  196  A    between atoms: _484  and  _486
REMARK  197  A    between atoms: _486  and  _487
REMARK  198  A    between atoms: _490  and  _492
REMARK  199  A    between atoms: _492  and  _493
REMARK  200  A    between atoms: _492  and  _495
REMARK  201  A    between atoms: _495  and  _496
REMARK  202  A    between atoms: _501  and  _503
REMARK  203  A    between atoms: _503  and  _504
REMARK  204  A    between atoms: _503  and  _506
REMARK  205  A    between atoms: _506  and  _507
REMARK  206  A    between atoms: _510  and  _512
REMARK  207  A    between atoms: _512  and  _513
REMARK  208  A    between atoms: _512  and  _515
REMARK  209  A    between atoms: _515  and  _516
REMARK  210  A    between atoms: _519  and  _521
REMARK  211  A    between atoms: _521  and  _522
REMARK  212  A    between atoms: _521  and  _524
REMARK  213  A    between atoms: _524  and  _525
REMARK  214  A    between atoms: _525  and  _526
REMARK  215  A    between atoms: _526  and  _527
REMARK  216  A    between atoms: _536  and  _538
REMARK  217  A    between atoms: _538  and  _539
REMARK  218  A    between atoms: _538  and  _541
REMARK  219  A    between atoms: _541  and  _542
REMARK  220  A    between atoms: _547  and  _549
REMARK  221  A    between atoms: _549  and  _550
REMARK  222  A    between atoms: _549  and  _552
REMARK  223  A    between atoms: _552  and  _553
REMARK  224  A    between atoms: _553  and  _554
REMARK  225  A    between atoms: _557  and  _559
REMARK  226  A    between atoms: _559  and  _560
REMARK  227  A    between atoms: _563  and  _565
REMARK  228  A    between atoms: _565  and  _566
REMARK  229  A    between atoms: _565  and  _568
REMARK  230  A    between atoms: _571  and  _573
REMARK  231  A    between atoms: _573  and  _574
REMARK  232  A    between atoms: _573  and  _576
REMARK  233  A    between atoms: _576  and  _577
REMARK  234  A    between atoms: _580  and  _582
REMARK  235  A    between atoms: _582  and  _583
REMARK  236  A    between atoms: _586  and  _588
REMARK  237  A    between atoms: _588  and  _589
REMARK  238  A    between atoms: _591  and  _593
REMARK  239  A    between atoms: _593  and  _594
REMARK  240  A    between atoms: _596  and  _598
REMARK  241  A    between atoms: _598  and  _599
REMARK  242  A    between atoms: _601  and  _603
REMARK  243  A    between atoms: _603  and  _604
REMARK  244  A    between atoms: _603  and  _606
REMARK  245  A    between atoms: _606  and  _607
REMARK  246  A    between atoms: _613  and  _615
REMARK  247  A    between atoms: _615  and  _616
REMARK  248  A    between atoms: _615  and  _618
REMARK  249  A    between atoms: _618  and  _619
REMARK  250  A    between atoms: _622  and  _624
REMARK  251  A    between atoms: _624  and  _625
REMARK  252  A    between atoms: _624  and  _627
REMARK  253  A    between atoms: _627  and  _628
REMARK  254  A    between atoms: _633  and  _635
REMARK  255  A    between atoms: _635  and  _636
REMARK  256  A    between atoms: _639  and  _641
REMARK  257  A    between atoms: _641  and  _642
REMARK  258  A    between atoms: _641  and  _644
REMARK  259  A    between atoms: _644  and  _645
REMARK  260  A    between atoms: _648  and  _650
REMARK  261  A    between atoms: _650  and  _651
REMARK  262  A    between atoms: _650  and  _653
REMARK  263  A    between atoms: _653  and  _654
REMARK  264  A    between atoms: _654  and  _655
REMARK  265  A    between atoms: _660  and  _662
REMARK  266  A    between atoms: _662  and  _663
REMARK  267  A    between atoms: _662  and  _665
REMARK  268  A    between atoms: _665  and  _666
REMARK                            x       y       z     vdW  Elec       q    Type
REMARK                         _______ _______ _______ _____ _____    ______ ____
ROOT
ATOM      1  CA  ALA A   2     -34.271  36.950  -0.400  0.00  0.00    +0.149 C 
ATOM      2  CB  ALA A   2     -33.174  37.704   0.303  0.00  0.00    +0.031 C 
ENDROOT
BRANCH   1   4
ATOM      3  C   VAL A   1     -36.703  37.141  -0.660  0.00  0.00    +0.238 C 
ATOM      4  N   ALA A   2     -35.541  37.649  -0.236  0.00  0.00    -0.297 N 
ATOM      5  H   ALA A   2     -35.543  38.579   0.229  0.00  0.00    +0.150 HD
ATOM      6  O   VAL A   1     -36.785  36.088  -1.286  0.00  0.00    -0.274 OA
BRANCH   3   7
ATOM      7  CA  VAL A   1     -37.956  37.970  -0.361  0.00  0.00    +0.145 C 
BRANCH   7   8
ATOM      8  CB  VAL A   1     -38.778  37.431   0.832  0.00  0.00    +0.025 C 
ATOM      9  CG2 VAL A   1     -37.874  36.910   1.963  0.00  0.00    +0.002 C 
ATOM     10  CG1 VAL A   1     -39.731  38.517   1.348  0.00  0.00    +0.002 C 
ENDBRANCH   7   8
BRANCH   7  11
ATOM     11  N   VAL A   1     -38.796  38.071  -1.523  0.00  0.00    -0.238 NA
ATOM     12  H   VAL A   1     -38.936  37.244  -2.138  0.00  0.00    +0.142 HD
ENDBRANCH   7  11
ENDBRANCH   3   7
ENDBRANCH   1   4
BRANCH   1  13
ATOM     13  C   ALA A   2     -34.373  35.535   0.163  0.00  0.00    +0.241 C 
ATOM     14  O   ALA A   2     -35.039  35.320   1.177  0.00  0.00    -0.273 OA
ATOM     15  N   LEU A   3     -33.703  34.590  -0.496  0.00  0.00    -0.298 N 
ATOM     16  H   LEU A   3     -33.177  34.860  -1.352  0.00  0.00    +0.150 HD
BRANCH  15  17
ATOM     17  CA  LEU A   3     -33.673  33.185  -0.070  0.00  0.00    +0.137 C 
BRANCH  17  18
ATOM     18  C   LEU A   3     -32.467  32.766   0.763  0.00  0.00    +0.227 C 
ATOM     19  O   LEU A   3     -32.647  32.052   1.769  0.00  0.00    -0.286 OA
ENDBRANCH  17  18
BRANCH  17  20
ATOM     20  CB  LEU A   3     -33.773  32.236  -1.272  0.00  0.00    +0.028 C 
BRANCH  20  21
ATOM     21  CG  LEU A   3     -33.586  30.754  -0.952  0.00  0.00    +0.002 C 
ATOM     22  CD2 LEU A   3     -34.692  30.288  -0.003  0.00  0.00    +0.000 C 
ATOM     23  CD1 LEU A   3     -33.503  29.890  -2.207  0.00  0.00    +0.000 C 
ENDBRANCH  20  21
ENDBRANCH  17  20
ENDBRANCH  15  17
ENDBRANCH   1  13
TORSDOF 9
REMARK  Name = ../refined-set-2016/3d7k/3d7k_pocket.pdb
REMARK  268 active torsions:
REMARK  status: ('A' for Active; 'I' for Inactive)
REMARK    1  A    between atoms: _1  and  _3
REMARK    2  A    between atoms: _3  and  _4
REMARK    3  A    between atoms: _3  and  _6
REMARK    4  A    between atoms: _6  and  _7
REMARK    5  A    between atoms: _10  and  _12
REMARK    6  A    between atoms: _12  and  _13
REMARK    7  A    between atoms: _12  and  _15
REMARK    8  A    between atoms: _15  and  _16
REMARK    9  A    between atoms: _20  and  _21
REMARK   10  A    between atoms: _26  and  _28
REMARK   11  A    between atoms: _28  and  _29
REMARK   12  A    between atoms: _28  and  _31
REMARK   13  A    between atoms: _31  and  _32
REMARK   14  A    between atoms: _35  and  _37
REMARK   15  A    between atoms: _37  and  _38
REMARK   16  A    between atoms: _40  and  _42
REMARK   17  A    between atoms: _42  and  _43
REMARK   18  A    between atoms: _46  and  _48
REMARK   19  A    between atoms: _48  and  _49
REMARK   20  A    between atoms: _48  and  _51
REMARK   21  A    between atoms: _51  and  _52
REMARK   22  A    between atoms: _55  and  _57
REMARK   23  A    between atoms: _57  and  _58
REMARK   24  A    between atoms: _57  and  _60
REMARK   25  A    between atoms: _60  and  _61
REMARK   26  A    between atoms: _64  and  _66
REMARK   27  A    between atoms: _66  and  _67
REMARK   28  A    between atoms: _66  and  _69
REMARK   29  A    between atoms: _69  and  _70
REMARK   30  A    between atoms: _75  and  _76
REMARK   31  A    between atoms: _78  and  _80
REMARK   32  A    between atoms: _80  and  _81
REMARK   33  A    between atoms: _80  and  _83
REMARK   34  A    between atoms: _83  and  _84
REMARK   35  A    between atoms: _87  and  _89
REMARK   36  A    between atoms: _89  and  _90
REMARK   37  A    between atoms: _89  and  _92
REMARK   38  A    between atoms: _92  and  _93
REMARK   39  A    between atoms: _103  and  _105
REMARK   40  A    between atoms: _105  and  _106
REMARK   41  A    between atoms: _105  and  _108
REMARK   42  A    between atoms: _108  and  _109
REMARK   43  A    between atoms: _112  and  _114
REMARK   44  A    between atoms: _114  and  _115
REMARK   45  A    between atoms: _114  and  _117
REMARK   46  A    between atoms: _117  and  _118
REMARK   47  A    between atoms: _123  and  _125
REMARK   48  A    between atoms: _125  and  _126
REMARK   49  A    between atoms: _128  and  _130
REMARK   50  A    between atoms: _130  and  _131
REMARK   51  A    between atoms: _130  and  _133
REMARK   52  A    between atoms: _133  and  _134
REMARK   53  A    between atoms: _139  and  _140
REMARK   54  A    between atoms: _142  and  _144
REMARK   55  A    between atoms: _144  and  _145
REMARK   56  A    between atoms: _144  and  _147
REMARK   57  A    between atoms: _147  and  _148
REMARK   58  A    between atoms: _151  and  _153
REMARK   59  A    between atoms: _153  and  _154
REMARK   60  A    between atoms: _156  and  _158
REMARK   61  A    between atoms: _158  and  _159
REMARK   62  A    between atoms: _158  and  _161
REMARK   63  A    between atoms: _161  and  _162
REMARK   64  A    between atoms: _164  and  _166
REMARK   65  A    between atoms: _166  and  _167
REMARK   66  A    between atoms: _166  and  _169
REMARK   67  A    between atoms: _169  and  _170
REMARK   68  A    between atoms: _170  and  _171
REMARK   69  A    between atoms: _173  and  _175
REMARK   70  A    between atoms: _175  and  _176
REMARK   71  A    between atoms: _178  and  _180
REMARK   72  A    between atoms: _180  and  _181
REMARK   73  A    between atoms: _180  and  _183
REMARK   74  A    between atoms: _186  and  _188
REMARK   75  A    between atoms: _188  and  _189
REMARK   76  A    between atoms: _188  and  _191
REMARK   77  A    between atoms: _191  and  _192
REMARK   78  A    between atoms: _195  and  _197
REMARK   79  A    between atoms: _197  and  _198
REMARK   80  A    between atoms: _200  and  _202
REMARK   81  A    between atoms: _202  and  _203
REMARK   82  A    between atoms: _202  and  _205
REMARK   83  A    between atoms: _205  and  _206
REMARK   84  A    between atoms: _206  and  _207
REMARK   85  A    between atoms: _207  and  CA_676
REMARK   86  A    between atoms: _209  and  _211
REMARK   87  A    between atoms: _211  and  _212
REMARK   88  A    between atoms: _214  and  _216
REMARK   89  A    between atoms: _216  and  _217
REMARK   90  A    between atoms: _216  and  _219
REMARK   91  A    between atoms: _219  and  _220
REMARK   92  A    between atoms: _222  and  _224
REMARK   93  A    between atoms: _224  and  _225
REMARK   94  A    between atoms: _224  and  _227
REMARK   95  A    between atoms: _230  and  _232
REMARK   96  A    between atoms: _232  and  _233
REMARK   97  A    between atoms: _235  and  _237
REMARK   98  A    between atoms: _237  and  _238
REMARK   99  A    between atoms: _237  and  _240
REMARK  100  A    between atoms: _240  and  _241
REMARK  101  A    between atoms: _246  and  _247
REMARK  102  A    between atoms: _249  and  _251
REMARK  103  A    between atoms: _251  and  _252
REMARK  104  A    between atoms: _251  and  _254
REMARK  105  A    between atoms: _254  and  _255
REMARK  106  A    between atoms: _258  and  _260
REMARK  107  A    between atoms: _260  and  _261
REMARK  108  A    between atoms: _260  and  _263
REMARK  109  A    between atoms: _263  and  _264
REMARK  110  A    between atoms: _264  and  _265
REMARK  111  A    between atoms: _267  and  _269
REMARK  112  A    between atoms: _269  and  _270
REMARK  113  A    between atoms: _269  and  _272
REMARK  114  A    between atoms: _272  and  _273
REMARK  115  A    between atoms: _278  and  _280
REMARK  116  A    between atoms: _280  and  _281
REMARK  117  A    between atoms: _280  and  _283
REMARK  118  A    between atoms: _283  and  _284
REMARK  119  A    between atoms: _289  and  _291
REMARK  120  A    between atoms: _291  and  _292
REMARK  121  A    between atoms: _291  and  _294
REMARK  122  A    between atoms: _294  and  _295
REMARK  123  A    between atoms: _295  and  _296
REMARK  124  A    between atoms: _301  and  _303
REMARK  125  A    between atoms: _303  and  _304
REMARK  126  A    between atoms: _303  and  _306
REMARK  127  A    between atoms: _306  and  _307
REMARK  128  A    between atoms: _309  and  _311
REMARK  129  A    between atoms: _311  and  _312
REMARK  130  A    between atoms: _311  and  _314
REMARK  131  A    between atoms: _314  and  _315
REMARK  132  A    between atoms: _325  and  _327
REMARK  133  A    between atoms: _327  and  _328
REMARK  134  A    between atoms: _330  and  _332
REMARK  135  A    between atoms: _332  and  _333
REMARK  136  A    between atoms: _336  and  _338
REMARK  137  A    between atoms: _338  and  _339
REMARK  138  A    between atoms: _338  and  _341
REMARK  139  A    between atoms: _341  and  _342
REMARK  140  A    between atoms: _345  and  _347
REMARK  141  A    between atoms: _347  and  _348
REMARK  142  A    between atoms: _347  and  _350
REMARK  143  A    between atoms: _350  and  _351
REMARK  144  A    between atoms: _354  and  _356
REMARK  145  A    between atoms: _356  and  _357
REMARK  146  A    between atoms: _356  and  _359
REMARK  147  A    between atoms: _359  and  _360
REMARK  148  A    between atoms: _365  and  _367
REMARK  149  A    between atoms: _367  and  _368
REMARK  150  A    between atoms: _367  and  _370
REMARK  151  A    between atoms: _370  and  _371
REMARK  152  A    between atoms: _377  and  _379
REMARK  153  A    between atoms: _379  and  _380
REMARK  154  A    between atoms: _379  and  _382
REMARK  155  A    between atoms: _382  and  _383
REMARK  156  A    between atoms: _383  and  _384
REMARK  157  A    between atoms: _389  and  _391
REMARK  158  A    between atoms: _391  and  _392
REMARK  159  A    between atoms: _394  and  _396
REMARK  160  A    between atoms: _396  and  _397
REMARK  161  A    between atoms: _396  and  _399
REMARK  162  A    between atoms: _399  and  _400
REMARK  163  A    between atoms: _403  and  _405
REMARK  164  A    between atoms: _405  and  _406
REMARK  165  A    between atoms: _405  and  _408
REMARK  166  A    between atoms: _408  and  _409
REMARK  167  A    between atoms: _412  and  _414
REMARK  168  A    between atoms: _414  and  _415
REMARK  169  A    between atoms: _414  and  _417
REMARK  170  A    between atoms: _417  and  _418
REMARK  171  A    between atoms: _423  and  _424
REMARK  172  A    between atoms: _426  and  _428
REMARK  173  A    between atoms: _428  and  _429
REMARK  174  A    between atoms: _428  and  _431
REMARK  175  A    between atoms: _434  and  _436
REMARK  176  A    between atoms: _436  and  _437
REMARK  177  A    between atoms: _440  and  _442
REMARK  178  A    between atoms: _442  and  _443
REMARK  179  A    between atoms: _442  and  _445
REMARK  180  A    between atoms: _445  and  _446
REMARK  181  A    between atoms: _449  and  _451
REMARK  182  A    between atoms: _451  and  _452
REMARK  183  A    between atoms: _451  and  _454
REMARK  184  A    between atoms: _454  and  _455
REMARK  185  A    between atoms: _455  and  _456
REMARK  186  A    between atoms: _459  and  _461
REMARK  187  A    between atoms: _461  and  _462
REMARK  188  A    between atoms: _461  and  _464
REMARK  189  A    between atoms: _464  and  _465
REMARK  190  A    between atoms: _468  and  _470
REMARK  191  A    between atoms: _470  and  _471
REMARK  192  A    between atoms: _470  and  _473
REMARK  193  A    between atoms: _473  and  _474
REMARK  194  A    between atoms: _479  and  _481
REMARK  195  A    between atoms: _481  and  _482
REMARK  196  A    between atoms: _484  and  _486
REMARK  197  A    between atoms: _486  and  _487
REMARK  198  A    between atoms: _490  and  _492
REMARK  199  A    between atoms: _492  and  _493
REMARK  200  A    between atoms: _492  and  _495
REMARK  201  A    between atoms: _495  and  _496
REMARK  202  A    between atoms: _501  and  _503
REMARK  203  A    between atoms: _503  and  _504
REMARK  204  A    between atoms: _503  and  _506
REMARK  205  A    between atoms: _506  and  _507
REMARK  206  A    between atoms: _510  and  _512
REMARK  207  A    between atoms: _512  and  _513
REMARK  208  A    between atoms: _512  and  _515
REMARK  209  A    between atoms: _515  and  _516
REMARK  210  A    between atoms: _519  and  _521
REMARK  211  A    between atoms: _521  and  _522
REMARK  212  A    between atoms: _521  and  _524
REMARK  213  A    between atoms: _524  and  _525
REMARK  214  A    between atoms: _525  and  _526
REMARK  215  A    between atoms: _526  and  _527
REMARK  216  A    between atoms: _536  and  _538
REMARK  217  A    between atoms: _538  and  _539
REMARK  218  A    between atoms: _538  and  _541
REMARK  219  A    between atoms: _541  and  _542
REMARK  220  A    between atoms: _547  and  _549
REMARK  221  A    between atoms: _549  and  _550
REMARK  222  A    between atoms: _549  and  _552
REMARK  223  A    between atoms: _552  and  _553
REMARK  224  A    between atoms: _553  and  _554
REMARK  225  A    between atoms: _557  and  _559
REMARK  226  A    between atoms: _559  and  _560
REMARK  227  A    between atoms: _563  and  _565
REMARK  228  A    between atoms: _565  and  _566
REMARK  229  A    between atoms: _565  and  _568
REMARK  230  A    between atoms: _571  and  _573
REMARK  231  A    between atoms: _573  and  _574
REMARK  232  A    between atoms: _573  and  _576
REMARK  233  A    between atoms: _576  and  _577
REMARK  234  A    between atoms: _580  and  _582
REMARK  235  A    between atoms: _582  and  _583
REMARK  236  A    between atoms: _586  and  _588
REMARK  237  A    between atoms: _588  and  _589
REMARK  238  A    between atoms: _591  and  _593
REMARK  239  A    between atoms: _593  and  _594
REMARK  240  A    between atoms: _596  and  _598
REMARK  241  A    between atoms: _598  and  _599
REMARK  242  A    between atoms: _601  and  _603
REMARK  243  A    between atoms: _603  and  _604
REMARK  244  A    between atoms: _603  and  _606
REMARK  245  A    between atoms: _606  and  _607
REMARK  246  A    between atoms: _613  and  _615
REMARK  247  A    between atoms: _615  and  _616
REMARK  248  A    between atoms: _615  and  _618
REMARK  249  A    between atoms: _618  and  _619
REMARK  250  A    between atoms: _622  and  _624
REMARK  251  A    between atoms: _624  and  _625
REMARK  252  A    between atoms: _624  and  _627
REMARK  253  A    between atoms: _627  and  _628
REMARK  254  A    between atoms: _633  and  _635
REMARK  255  A    between atoms: _635  and  _636
REMARK  256  A    between atoms: _639  and  _641
REMARK  257  A    between atoms: _641  and  _642
REMARK  258  A    between atoms: _641  and  _644
REMARK  259  A    between atoms: _644  and  _645
REMARK  260  A    between atoms: _648  and  _650
REMARK  261  A    between atoms: _650  and  _651
REMARK  262  A    between atoms: _650  and  _653
REMARK  263  A    between atoms: _653  and  _654
REMARK  264  A    between atoms: _654  and  _655
REMARK  265  A    between atoms: _660  and  _662
REMARK  266  A    between atoms: _662  and  _663
REMARK  267  A    between atoms: _662  and  _665
REMARK  268  A    between atoms: _665  and  _666
REMARK                            x       y       z     vdW  Elec       q    Type
REMARK                         _______ _______ _______ _____ _____    ______ ____
ROOT
ATOM      1  CA  GLU A   1     -30.468  26.927  11.659  0.00  0.00    +0.134 C 
ENDROOT
BRANCH   1   2
ATOM      2  N   GLU A   1     -31.097  27.908  12.526  0.00  0.00    -0.239 NA
ATOM      3  H   GLU A   1     -31.037  28.905  12.237  0.00  0.00    +0.142 HD
ENDBRANCH   1   2
BRANCH   1   4
ATOM      4  C   GLU A   1     -28.998  26.999  12.111  0.00  0.00    +0.224 C 
ATOM      5  O   GLU A   1     -28.720  26.856  13.304  0.00  0.00    -0.287 OA
ENDBRANCH   1   4
BRANCH   1   6
ATOM      6  CB  GLU A   1     -30.636  27.398  10.203  0.00  0.00    +0.037 C 
BRANCH   6   7
ATOM      7  CG  GLU A   1     -31.137  26.343   9.194  0.00  0.00    +0.116 C 
BRANCH   7   8
ATOM      8  CD  GLU A   1     -31.420  26.906   7.771  0.00  0.00    +0.365 C 
ATOM      9  OE2 GLU A   1     -30.628  27.728   7.248  0.00  0.00    -0.246 OA
ATOM     10  OE1 GLU A   1     -32.439  26.501   7.161  0.00  0.00    -0.246 OA
ENDBRANCH   7   8
ENDBRANCH   6   7
ENDBRANCH   1   6
TORSDOF 5
REMARK  Name = ../refined-set-2016/3d7k/3d7k_pocket.pdb
REMARK  268 active torsions:
REMARK  status: ('A' for Active; 'I' for Inactive)
REMARK    1  A    between atoms: _1  and  _3
REMARK    2  A    between atoms: _3  and  _4
REMARK    3  A    between atoms: _3  and  _6
REMARK    4  A    between atoms: _6  and  _7
REMARK    5  A    between atoms: _10  and  _12
REMARK    6  A    between atoms: _12  and  _13
REMARK    7  A    between atoms: _12  and  _15
REMARK    8  A    between atoms: _15  and  _16
REMARK    9  A    between atoms: _20  and  _21
REMARK   10  A    between atoms: _26  and  _28
REMARK   11  A    between atoms: _28  and  _29
REMARK   12  A    between atoms: _28  and  _31
REMARK   13  A    between atoms: _31  and  _32
REMARK   14  A    between atoms: _35  and  _37
REMARK   15  A    between atoms: _37  and  _38
REMARK   16  A    between atoms: _40  and  _42
REMARK   17  A    between atoms: _42  and  _43
REMARK   18  A    between atoms: _46  and  _48
REMARK   19  A    between atoms: _48  and  _49
REMARK   20  A    between atoms: _48  and  _51
REMARK   21  A    between atoms: _51  and  _52
REMARK   22  A    between atoms: _55  and  _57
REMARK   23  A    between atoms: _57  and  _58
REMARK   24  A    between atoms: _57  and  _60
REMARK   25  A    between atoms: _60  and  _61
REMARK   26  A    between atoms: _64  and  _66
REMARK   27  A    between atoms: _66  and  _67
REMARK   28  A    between atoms: _66  and  _69
REMARK   29  A    between atoms: _69  and  _70
REMARK   30  A    between atoms: _75  and  _76
REMARK   31  A    between atoms: _78  and  _80
REMARK   32  A    between atoms: _80  and  _81
REMARK   33  A    between atoms: _80  and  _83
REMARK   34  A    between atoms: _83  and  _84
REMARK   35  A    between atoms: _87  and  _89
REMARK   36  A    between atoms: _89  and  _90
REMARK   37  A    between atoms: _89  and  _92
REMARK   38  A    between atoms: _92  and  _93
REMARK   39  A    between atoms: _103  and  _105
REMARK   40  A    between atoms: _105  and  _106
REMARK   41  A    between atoms: _105  and  _108
REMARK   42  A    between atoms: _108  and  _109
REMARK   43  A    between atoms: _112  and  _114
REMARK   44  A    between atoms: _114  and  _115
REMARK   45  A    between atoms: _114  and  _117
REMARK   46  A    between atoms: _117  and  _118
REMARK   47  A    between atoms: _123  and  _125
REMARK   48  A    between atoms: _125  and  _126
REMARK   49  A    between atoms: _128  and  _130
REMARK   50  A    between atoms: _130  and  _131
REMARK   51  A    between atoms: _130  and  _133
REMARK   52  A    between atoms: _133  and  _134
REMARK   53  A    between atoms: _139  and  _140
REMARK   54  A    between atoms: _142  and  _144
REMARK   55  A    between atoms: _144  and  _145
REMARK   56  A    between atoms: _144  and  _147
REMARK   57  A    between atoms: _147  and  _148
REMARK   58  A    between atoms: _151  and  _153
REMARK   59  A    between atoms: _153  and  _154
REMARK   60  A    between atoms: _156  and  _158
REMARK   61  A    between atoms: _158  and  _159
REMARK   62  A    between atoms: _158  and  _161
REMARK   63  A    between atoms: _161  and  _162
REMARK   64  A    between atoms: _164  and  _166
REMARK   65  A    between atoms: _166  and  _167
REMARK   66  A    between atoms: _166  and  _169
REMARK   67  A    between atoms: _169  and  _170
REMARK   68  A    between atoms: _170  and  _171
REMARK   69  A    between atoms: _173  and  _175
REMARK   70  A    between atoms: _175  and  _176
REMARK   71  A    between atoms: _178  and  _180
REMARK   72  A    between atoms: _180  and  _181
REMARK   73  A    between atoms: _180  and  _183
REMARK   74  A    between atoms: _186  and  _188
REMARK   75  A    between atoms: _188  and  _189
REMARK   76  A    between atoms: _188  and  _191
REMARK   77  A    between atoms: _191  and  _192
REMARK   78  A    between atoms: _195  and  _197
REMARK   79  A    between atoms: _197  and  _198
REMARK   80  A    between atoms: _200  and  _202
REMARK   81  A    between atoms: _202  and  _203
REMARK   82  A    between atoms: _202  and  _205
REMARK   83  A    between atoms: _205  and  _206
REMARK   84  A    between atoms: _206  and  _207
REMARK   85  A    between atoms: _207  and  CA_676
REMARK   86  A    between atoms: _209  and  _211
REMARK   87  A    between atoms: _211  and  _212
REMARK   88  A    between atoms: _214  and  _216
REMARK   89  A    between atoms: _216  and  _217
REMARK   90  A    between atoms: _216  and  _219
REMARK   91  A    between atoms: _219  and  _220
REMARK   92  A    between atoms: _222  and  _224
REMARK   93  A    between atoms: _224  and  _225
REMARK   94  A    between atoms: _224  and  _227
REMARK   95  A    between atoms: _230  and  _232
REMARK   96  A    between atoms: _232  and  _233
REMARK   97  A    between atoms: _235  and  _237
REMARK   98  A    between atoms: _237  and  _238
REMARK   99  A    between atoms: _237  and  _240
REMARK  100  A    between atoms: _240  and  _241
REMARK  101  A    between atoms: _246  and  _247
REMARK  102  A    between atoms: _249  and  _251
REMARK  103  A    between atoms: _251  and  _252
REMARK  104  A    between atoms: _251  and  _254
REMARK  105  A    between atoms: _254  and  _255
REMARK  106  A    between atoms: _258  and  _260
REMARK  107  A    between atoms: _260  and  _261
REMARK  108  A    between atoms: _260  and  _263
REMARK  109  A    between atoms: _263  and  _264
REMARK  110  A    between atoms: _264  and  _265
REMARK  111  A    between atoms: _267  and  _269
REMARK  112  A    between atoms: _269  and  _270
REMARK  113  A    between atoms: _269  and  _272
REMARK  114  A    between atoms: _272  and  _273
REMARK  115  A    between atoms: _278  and  _280
REMARK  116  A    between atoms: _280  and  _281
REMARK  117  A    between atoms: _280  and  _283
REMARK  118  A    between atoms: _283  and  _284
REMARK  119  A    between atoms: _289  and  _291
REMARK  120  A    between atoms: _291  and  _292
REMARK  121  A    between atoms: _291  and  _294
REMARK  122  A    between atoms: _294  and  _295
REMARK  123  A    between atoms: _295  and  _296
REMARK  124  A    between atoms: _301  and  _303
REMARK  125  A    between atoms: _303  and  _304
REMARK  126  A    between atoms: _303  and  _306
REMARK  127  A    between atoms: _306  and  _307
REMARK  128  A    between atoms: _309  and  _311
REMARK  129  A    between atoms: _311  and  _312
REMARK  130  A    between atoms: _311  and  _314
REMARK  131  A    between atoms: _314  and  _315
REMARK  132  A    between atoms: _325  and  _327
REMARK  133  A    between atoms: _327  and  _328
REMARK  134  A    between atoms: _330  and  _332
REMARK  135  A    between atoms: _332  and  _333
REMARK  136  A    between atoms: _336  and  _338
REMARK  137  A    between atoms: _338  and  _339
REMARK  138  A    between atoms: _338  and  _341
REMARK  139  A    between atoms: _341  and  _342
REMARK  140  A    between atoms: _345  and  _347
REMARK  141  A    between atoms: _347  and  _348
REMARK  142  A    between atoms: _347  and  _350
REMARK  143  A    between atoms: _350  and  _351
REMARK  144  A    between atoms: _354  and  _356
REMARK  145  A    between atoms: _356  and  _357
REMARK  146  A    between atoms: _356  and  _359
REMARK  147  A    between atoms: _359  and  _360
REMARK  148  A    between atoms: _365  and  _367
REMARK  149  A    between atoms: _367  and  _368
REMARK  150  A    between atoms: _367  and  _370
REMARK  151  A    between atoms: _370  and  _371
REMARK  152  A    between atoms: _377  and  _379
REMARK  153  A    between atoms: _379  and  _380
REMARK  154  A    between atoms: _379  and  _382
REMARK  155  A    between atoms: _382  and  _383
REMARK  156  A    between atoms: _383  and  _384
REMARK  157  A    between atoms: _389  and  _391
REMARK  158  A    between atoms: _391  and  _392
REMARK  159  A    between atoms: _394  and  _396
REMARK  160  A    between atoms: _396  and  _397
REMARK  161  A    between atoms: _396  and  _399
REMARK  162  A    between atoms: _399  and  _400
REMARK  163  A    between atoms: _403  and  _405
REMARK  164  A    between atoms: _405  and  _406
REMARK  165  A    between atoms: _405  and  _408
REMARK  166  A    between atoms: _408  and  _409
REMARK  167  A    between atoms: _412  and  _414
REMARK  168  A    between atoms: _414  and  _415
REMARK  169  A    between atoms: _414  and  _417
REMARK  170  A    between atoms: _417  and  _418
REMARK  171  A    between atoms: _423  and  _424
REMARK  172  A    between atoms: _426  and  _428
REMARK  173  A    between atoms: _428  and  _429
REMARK  174  A    between atoms: _428  and  _431
REMARK  175  A    between atoms: _434  and  _436
REMARK  176  A    between atoms: _436  and  _437
REMARK  177  A    between atoms: _440  and  _442
REMARK  178  A    between atoms: _442  and  _443
REMARK  179  A    between atoms: _442  and  _445
REMARK  180  A    between atoms: _445  and  _446
REMARK  181  A    between atoms: _449  and  _451
REMARK  182  A    between atoms: _451  and  _452
REMARK  183  A    between atoms: _451  and  _454
REMARK  184  A    between atoms: _454  and  _455
REMARK  185  A    between atoms: _455  and  _456
REMARK  186  A    between atoms: _459  and  _461
REMARK  187  A    between atoms: _461  and  _462
REMARK  188  A    between atoms: _461  and  _464
REMARK  189  A    between atoms: _464  and  _465
REMARK  190  A    between atoms: _468  and  _470
REMARK  191  A    between atoms: _470  and  _471
REMARK  192  A    between atoms: _470  and  _473
REMARK  193  A    between atoms: _473  and  _474
REMARK  194  A    between atoms: _479  and  _481
REMARK  195  A    between atoms: _481  and  _482
REMARK  196  A    between atoms: _484  and  _486
REMARK  197  A    between atoms: _486  and  _487
REMARK  198  A    between atoms: _490  and  _492
REMARK  199  A    between atoms: _492  and  _493
REMARK  200  A    between atoms: _492  and  _495
REMARK  201  A    between atoms: _495  and  _496
REMARK  202  A    between atoms: _501  and  _503
REMARK  203  A    between atoms: _503  and  _504
REMARK  204  A    between atoms: _503  and  _506
REMARK  205  A    between atoms: _506  and  _507
REMARK  206  A    between atoms: _510  and  _512
REMARK  207  A    between atoms: _512  and  _513
REMARK  208  A    between atoms: _512  and  _515
REMARK  209  A    between atoms: _515  and  _516
REMARK  210  A    between atoms: _519  and  _521
REMARK  211  A    between atoms: _521  and  _522
REMARK  212  A    between atoms: _521  and  _524
REMARK  213  A    between atoms: _524  and  _525
REMARK  214  A    between atoms: _525  and  _526
REMARK  215  A    between atoms: _526  and  _527
REMARK  216  A    between atoms: _536  and  _538
REMARK  217  A    between atoms: _538  and  _539
REMARK  218  A    between atoms: _538  and  _541
REMARK  219  A    between atoms: _541  and  _542
REMARK  220  A    between atoms: _547  and  _549
REMARK  221  A    between atoms: _549  and  _550
REMARK  222  A    between atoms: _549  and  _552
REMARK  223  A    between atoms: _552  and  _553
REMARK  224  A    between atoms: _553  and  _554
REMARK  225  A    between atoms: _557  and  _559
REMARK  226  A    between atoms: _559  and  _560
REMARK  227  A    between atoms: _563  and  _565
REMARK  228  A    between atoms: _565  and  _566
REMARK  229  A    between atoms: _565  and  _568
REMARK  230  A    between atoms: _571  and  _573
REMARK  231  A    between atoms: _573  and  _574
REMARK  232  A    between atoms: _573  and  _576
REMARK  233  A    between atoms: _576  and  _577
REMARK  234  A    between atoms: _580  and  _582
REMARK  235  A    between atoms: _582  and  _583
REMARK  236  A    between atoms: _586  and  _588
REMARK  237  A    between atoms: _588  and  _589
REMARK  238  A    between atoms: _591  and  _593
REMARK  239  A    between atoms: _593  and  _594
REMARK  240  A    between atoms: _596  and  _598
REMARK  241  A    between atoms: _598  and  _599
REMARK  242  A    between atoms: _601  and  _603
REMARK  243  A    between atoms: _603  and  _604
REMARK  244  A    between atoms: _603  and  _606
REMARK  245  A    between atoms: _606  and  _607
REMARK  246  A    between atoms: _613  and  _615
REMARK  247  A    between atoms: _615  and  _616
REMARK  248  A    between atoms: _615  and  _618
REMARK  249  A    between atoms: _618  and  _619
REMARK  250  A    between atoms: _622  and  _624
REMARK  251  A    between atoms: _624  and  _625
REMARK  252  A    between atoms: _624  and  _627
REMARK  253  A    between atoms: _627  and  _628
REMARK  254  A    between atoms: _633  and  _635
REMARK  255  A    between atoms: _635  and  _636
REMARK  256  A    between atoms: _639  and  _641
REMARK  257  A    between atoms: _641  and  _642
REMARK  258  A    between atoms: _641  and  _644
REMARK  259  A    between atoms: _644  and  _645
REMARK  260  A    between atoms: _648  and  _650
REMARK  261  A    between atoms: _650  and  _651
REMARK  262  A    between atoms: _650  and  _653
REMARK  263  A    between atoms: _653  and  _654
REMARK  264  A    between atoms: _654  and  _655
REMARK  265  A    between atoms: _660  and  _662
REMARK  266  A    between atoms: _662  and  _663
REMARK  267  A    between atoms: _662  and  _665
REMARK  268  A    between atoms: _665  and  _666
REMARK                            x       y       z     vdW  Elec       q    Type
REMARK                         _______ _______ _______ _____ _____    ______ ____
ROOT
ATOM      1  C   ALA A   4     -35.405  15.243   5.352  0.00  0.00    +0.241 C 
ATOM      2  N   HIS A   5     -36.437  14.781   6.037  0.00  0.00    -0.297 N 
ATOM      3  H   HIS A   5     -37.262  15.390   6.212  0.00  0.00    +0.150 HD
ATOM      4  O   ALA A   4     -34.503  14.501   4.980  0.00  0.00    -0.273 OA
ENDROOT
BRANCH   1   5
ATOM      5  CA  ALA A   4     -35.399  16.761   5.011  0.00  0.00    +0.149 C 
ATOM      6  CB  ALA A   4     -34.902  17.575   6.187  0.00  0.00    +0.031 C 
BRANCH   5   8
ATOM      7  C   GLY A   3     -37.365  16.553   3.658  0.00  0.00    +0.243 C 
ATOM      8  N   ALA A   4     -36.724  17.216   4.606  0.00  0.00    -0.297 N 
ATOM      9  H   ALA A   4     -37.158  18.048   5.055  0.00  0.00    +0.150 HD
ATOM     10  O   GLY A   3     -36.877  15.578   3.082  0.00  0.00    -0.273 OA
BRANCH   7  11
ATOM     11  CA  GLY A   3     -38.756  17.028   3.307  0.00  0.00    +0.176 C 
BRANCH  11  13
ATOM     12  C   HIS A   2     -39.812  17.320   1.188  0.00  0.00    +0.241 C 
ATOM     13  N   GLY A   3     -38.919  16.689   1.918  0.00  0.00    -0.295 N 
ATOM     14  H   GLY A   3     -38.331  15.945   1.492  0.00  0.00    +0.150 HD
ATOM     15  O   HIS A   2     -40.629  18.073   1.671  0.00  0.00    -0.273 OA
BRANCH  12  16
ATOM     16  CA  HIS A   2     -39.714  17.085  -0.313  0.00  0.00    +0.155 C 
BRANCH  16  19
ATOM     17  C   LEU A   1     -41.988  16.431  -0.944  0.00  0.00    +0.238 C 
ATOM     18  O   LEU A   1     -42.145  15.671  -0.010  0.00  0.00    -0.274 OA
ATOM     19  N   HIS A   2     -40.924  17.172  -1.111  0.00  0.00    -0.297 N 
ATOM     20  H   HIS A   2     -40.946  17.878  -1.874  0.00  0.00    +0.150 HD
BRANCH  17  21
ATOM     21  CA  LEU A   1     -42.982  16.566  -2.070  0.00  0.00    +0.145 C 
BRANCH  21  22
ATOM     22  N   LEU A   1     -43.269  15.220  -2.454  0.00  0.00    -0.238 NA
ATOM     23  H   LEU A   1     -42.928  14.447  -1.847  0.00  0.00    +0.142 HD
ENDBRANCH  21  22
BRANCH  21  24
ATOM     24  CB  LEU A   1     -44.269  17.385  -1.768  0.00  0.00    +0.026 C 
BRANCH  24  25
ATOM     25  CG  LEU A   1     -44.444  18.490  -0.704  0.00  0.00    +0.002 C 
ATOM     26  CD2 LEU A   1     -43.214  19.331  -0.285  0.00  0.00    +0.000 C 
ATOM     27  CD1 LEU A   1     -45.614  19.403  -1.020  0.00  0.00    +0.000 C 
ENDBRANCH  24  25
ENDBRANCH  21  24
ENDBRANCH  17  21
ENDBRANCH  16  19
BRANCH  16  28
ATOM     28  CB  HIS A   2     -38.744  18.107  -0.848  0.00  0.00    +0.076 C 
BRANCH  28  29
ATOM     29  CG  HIS A   2     -37.395  17.964  -0.271  0.00  0.00    +0.082 A 
ATOM     30  CD2 HIS A   2     -36.847  18.481   0.857  0.00  0.00    +0.115 A 
ATOM     31  NE2 HIS A   2     -35.562  18.008   0.932  0.00  0.00    -0.221 NA
ATOM     32  CE1 HIS A   2     -35.337  17.220  -0.108  0.00  0.00    +0.199 A 
ATOM     33  ND1 HIS A   2     -36.439  17.159  -0.843  0.00  0.00    -0.227 NA
ENDBRANCH  28  29
ENDBRANCH  16  28
ENDBRANCH  12  16
ENDBRANCH  11  13
ENDBRANCH   7  11
ENDBRANCH   5   8
ENDBRANCH   1   5
BRANCH   2  34
ATOM     34  CA  HIS A   5     -36.416  13.433   6.540  0.00  0.00    +0.155 C 
BRANCH  34  35
ATOM     35  C   HIS A   5     -36.220  12.418   5.421  0.00  0.00    +0.241 C 
ATOM     36  O   HIS A   5     -35.695  11.352   5.703  0.00  0.00    -0.273 OA
ATOM     37  N   ILE A   6     -36.626  12.746   4.187  0.00  0.00    -0.297 N 
ATOM     38  H   ILE A   6     -36.949  13.718   4.004  0.00  0.00    +0.150 HD
BRANCH  37  39
ATOM     39  CA  ILE A   6     -36.629  11.776   3.084  0.00  0.00    +0.149 C 
BRANCH  39  40
ATOM     40  C   ILE A   6     -35.646  12.185   1.981  0.00  0.00    +0.241 C 
ATOM     41  N   ASP A   7     -34.889  13.251   2.268  0.00  0.00    -0.298 N 
ATOM     42  H   ASP A   7     -35.010  13.719   3.189  0.00  0.00    +0.150 HD
ATOM     43  O   ILE A   6     -35.565  11.527   0.901  0.00  0.00    -0.273 OA
BRANCH  41  44
ATOM     44  CA  ASP A   7     -33.898  13.780   1.331  0.00  0.00    +0.148 C 
BRANCH  44  45
ATOM     45  C   ASP A   7     -32.917  12.751   0.835  0.00  0.00    +0.227 C 
ATOM     46  O   ASP A   7     -32.596  12.726  -0.349  0.00  0.00    -0.286 OA
ENDBRANCH  44  45
BRANCH  44  47
ATOM     47  CB  ASP A   7     -33.150  15.003   1.879  0.00  0.00    +0.142 C 
BRANCH  47  48
ATOM     48  CG  ASP A   7     -32.339  15.734   0.776  0.00  0.00    +0.367 C 
ATOM     49  OD2 ASP A   7     -31.130  15.986   1.011  0.00  0.00    -0.246 OA
ATOM     50  OD1 ASP A   7     -32.889  16.009  -0.333  0.00  0.00    -0.246 OA
ENDBRANCH  47  48
ENDBRANCH  44  47
ENDBRANCH  41  44
ENDBRANCH  39  40
BRANCH  39  51
ATOM     51  CB  ILE A   6     -38.041  11.565   2.418  0.00  0.00    +0.027 C 
ATOM     52  CG2 ILE A   6     -38.942  10.733   3.303  0.00  0.00    +0.002 C 
BRANCH  51  53
ATOM     53  CG1 ILE A   6     -38.710  12.900   2.051  0.00  0.00    +0.002 C 
ATOM     54  CD1 ILE A   6     -39.929  12.743   1.190  0.00  0.00    +0.000 C 
ENDBRANCH  51  53
ENDBRANCH  39  51
ENDBRANCH  37  39
ENDBRANCH  34  35
BRANCH  34  55
ATOM     55  CB  HIS A   5     -37.690  13.104   7.348  0.00  0.00    +0.076 C 
BRANCH  55  56
ATOM     56  CG  HIS A   5     -37.807  13.845   8.651  0.00  0.00    +0.082 A 
ATOM     57  CD2 HIS A   5     -37.757  13.408   9.931  0.00  0.00    +0.115 A 
ATOM     58  NE2 HIS A   5     -37.926  14.501  10.740  0.00  0.00    -0.221 NA
ATOM     59  CE1 HIS A   5     -38.113  15.569   9.985  0.00  0.00    +0.199 A 
ATOM     60  ND1 HIS A   5     -38.046  15.199   8.718  0.00  0.00    -0.227 NA
ENDBRANCH  55  56
ENDBRANCH  34  55
ENDBRANCH   2  34
TORSDOF 24
REMARK  Name = ../refined-set-2016/3d7k/3d7k_pocket.pdb
REMARK  268 active torsions:
REMARK  status: ('A' for Active; 'I' for Inactive)
REMARK    1  A    between atoms: _1  and  _3
REMARK    2  A    between atoms: _3  and  _4
REMARK    3  A    between atoms: _3  and  _6
REMARK    4  A    between atoms: _6  and  _7
REMARK    5  A    between atoms: _10  and  _12
REMARK    6  A    between atoms: _12  and  _13
REMARK    7  A    between atoms: _12  and  _15
REMARK    8  A    between atoms: _15  and  _16
REMARK    9  A    between atoms: _20  and  _21
REMARK   10  A    between atoms: _26  and  _28
REMARK   11  A    between atoms: _28  and  _29
REMARK   12  A    between atoms: _28  and  _31
REMARK   13  A    between atoms: _31  and  _32
REMARK   14  A    between atoms: _35  and  _37
REMARK   15  A    between atoms: _37  and  _38
REMARK   16  A    between atoms: _40  and  _42
REMARK   17  A    between atoms: _42  and  _43
REMARK   18  A    between atoms: _46  and  _48
REMARK   19  A    between atoms: _48  and  _49
REMARK   20  A    between atoms: _48  and  _51
REMARK   21  A    between atoms: _51  and  _52
REMARK   22  A    between atoms: _55  and  _57
REMARK   23  A    between atoms: _57  and  _58
REMARK   24  A    between atoms: _57  and  _60
REMARK   25  A    between atoms: _60  and  _61
REMARK   26  A    between atoms: _64  and  _66
REMARK   27  A    between atoms: _66  and  _67
REMARK   28  A    between atoms: _66  and  _69
REMARK   29  A    between atoms: _69  and  _70
REMARK   30  A    between atoms: _75  and  _76
REMARK   31  A    between atoms: _78  and  _80
REMARK   32  A    between atoms: _80  and  _81
REMARK   33  A    between atoms: _80  and  _83
REMARK   34  A    between atoms: _83  and  _84
REMARK   35  A    between atoms: _87  and  _89
REMARK   36  A    between atoms: _89  and  _90
REMARK   37  A    between atoms: _89  and  _92
REMARK   38  A    between atoms: _92  and  _93
REMARK   39  A    between atoms: _103  and  _105
REMARK   40  A    between atoms: _105  and  _106
REMARK   41  A    between atoms: _105  and  _108
REMARK   42  A    between atoms: _108  and  _109
REMARK   43  A    between atoms: _112  and  _114
REMARK   44  A    between atoms: _114  and  _115
REMARK   45  A    between atoms: _114  and  _117
REMARK   46  A    between atoms: _117  and  _118
REMARK   47  A    between atoms: _123  and  _125
REMARK   48  A    between atoms: _125  and  _126
REMARK   49  A    between atoms: _128  and  _130
REMARK   50  A    between atoms: _130  and  _131
REMARK   51  A    between atoms: _130  and  _133
REMARK   52  A    between atoms: _133  and  _134
REMARK   53  A    between atoms: _139  and  _140
REMARK   54  A    between atoms: _142  and  _144
REMARK   55  A    between atoms: _144  and  _145
REMARK   56  A    between atoms: _144  and  _147
REMARK   57  A    between atoms: _147  and  _148
REMARK   58  A    between atoms: _151  and  _153
REMARK   59  A    between atoms: _153  and  _154
REMARK   60  A    between atoms: _156  and  _158
REMARK   61  A    between atoms: _158  and  _159
REMARK   62  A    between atoms: _158  and  _161
REMARK   63  A    between atoms: _161  and  _162
REMARK   64  A    between atoms: _164  and  _166
REMARK   65  A    between atoms: _166  and  _167
REMARK   66  A    between atoms: _166  and  _169
REMARK   67  A    between atoms: _169  and  _170
REMARK   68  A    between atoms: _170  and  _171
REMARK   69  A    between atoms: _173  and  _175
REMARK   70  A    between atoms: _175  and  _176
REMARK   71  A    between atoms: _178  and  _180
REMARK   72  A    between atoms: _180  and  _181
REMARK   73  A    between atoms: _180  and  _183
REMARK   74  A    between atoms: _186  and  _188
REMARK   75  A    between atoms: _188  and  _189
REMARK   76  A    between atoms: _188  and  _191
REMARK   77  A    between atoms: _191  and  _192
REMARK   78  A    between atoms: _195  and  _197
REMARK   79  A    between atoms: _197  and  _198
REMARK   80  A    between atoms: _200  and  _202
REMARK   81  A    between atoms: _202  and  _203
REMARK   82  A    between atoms: _202  and  _205
REMARK   83  A    between atoms: _205  and  _206
REMARK   84  A    between atoms: _206  and  _207
REMARK   85  A    between atoms: _207  and  CA_676
REMARK   86  A    between atoms: _209  and  _211
REMARK   87  A    between atoms: _211  and  _212
REMARK   88  A    between atoms: _214  and  _216
REMARK   89  A    between atoms: _216  and  _217
REMARK   90  A    between atoms: _216  and  _219
REMARK   91  A    between atoms: _219  and  _220
REMARK   92  A    between atoms: _222  and  _224
REMARK   93  A    between atoms: _224  and  _225
REMARK   94  A    between atoms: _224  and  _227
REMARK   95  A    between atoms: _230  and  _232
REMARK   96  A    between atoms: _232  and  _233
REMARK   97  A    between atoms: _235  and  _237
REMARK   98  A    between atoms: _237  and  _238
REMARK   99  A    between atoms: _237  and  _240
REMARK  100  A    between atoms: _240  and  _241
REMARK  101  A    between atoms: _246  and  _247
REMARK  102  A    between atoms: _249  and  _251
REMARK  103  A    between atoms: _251  and  _252
REMARK  104  A    between atoms: _251  and  _254
REMARK  105  A    between atoms: _254  and  _255
REMARK  106  A    between atoms: _258  and  _260
REMARK  107  A    between atoms: _260  and  _261
REMARK  108  A    between atoms: _260  and  _263
REMARK  109  A    between atoms: _263  and  _264
REMARK  110  A    between atoms: _264  and  _265
REMARK  111  A    between atoms: _267  and  _269
REMARK  112  A    between atoms: _269  and  _270
REMARK  113  A    between atoms: _269  and  _272
REMARK  114  A    between atoms: _272  and  _273
REMARK  115  A    between atoms: _278  and  _280
REMARK  116  A    between atoms: _280  and  _281
REMARK  117  A    between atoms: _280  and  _283
REMARK  118  A    between atoms: _283  and  _284
REMARK  119  A    between atoms: _289  and  _291
REMARK  120  A    between atoms: _291  and  _292
REMARK  121  A    between atoms: _291  and  _294
REMARK  122  A    between atoms: _294  and  _295
REMARK  123  A    between atoms: _295  and  _296
REMARK  124  A    between atoms: _301  and  _303
REMARK  125  A    between atoms: _303  and  _304
REMARK  126  A    between atoms: _303  and  _306
REMARK  127  A    between atoms: _306  and  _307
REMARK  128  A    between atoms: _309  and  _311
REMARK  129  A    between atoms: _311  and  _312
REMARK  130  A    between atoms: _311  and  _314
REMARK  131  A    between atoms: _314  and  _315
REMARK  132  A    between atoms: _325  and  _327
REMARK  133  A    between atoms: _327  and  _328
REMARK  134  A    between atoms: _330  and  _332
REMARK  135  A    between atoms: _332  and  _333
REMARK  136  A    between atoms: _336  and  _338
REMARK  137  A    between atoms: _338  and  _339
REMARK  138  A    between atoms: _338  and  _341
REMARK  139  A    between atoms: _341  and  _342
REMARK  140  A    between atoms: _345  and  _347
REMARK  141  A    between atoms: _347  and  _348
REMARK  142  A    between atoms: _347  and  _350
REMARK  143  A    between atoms: _350  and  _351
REMARK  144  A    between atoms: _354  and  _356
REMARK  145  A    between atoms: _356  and  _357
REMARK  146  A    between atoms: _356  and  _359
REMARK  147  A    between atoms: _359  and  _360
REMARK  148  A    between atoms: _365  and  _367
REMARK  149  A    between atoms: _367  and  _368
REMARK  150  A    between atoms: _367  and  _370
REMARK  151  A    between atoms: _370  and  _371
REMARK  152  A    between atoms: _377  and  _379
REMARK  153  A    between atoms: _379  and  _380
REMARK  154  A    between atoms: _379  and  _382
REMARK  155  A    between atoms: _382  and  _383
REMARK  156  A    between atoms: _383  and  _384
REMARK  157  A    between atoms: _389  and  _391
REMARK  158  A    between atoms: _391  and  _392
REMARK  159  A    between atoms: _394  and  _396
REMARK  160  A    between atoms: _396  and  _397
REMARK  161  A    between atoms: _396  and  _399
REMARK  162  A    between atoms: _399  and  _400
REMARK  163  A    between atoms: _403  and  _405
REMARK  164  A    between atoms: _405  and  _406
REMARK  165  A    between atoms: _405  and  _408
REMARK  166  A    between atoms: _408  and  _409
REMARK  167  A    between atoms: _412  and  _414
REMARK  168  A    between atoms: _414  and  _415
REMARK  169  A    between atoms: _414  and  _417
REMARK  170  A    between atoms: _417  and  _418
REMARK  171  A    between atoms: _423  and  _424
REMARK  172  A    between atoms: _426  and  _428
REMARK  173  A    between atoms: _428  and  _429
REMARK  174  A    between atoms: _428  and  _431
REMARK  175  A    between atoms: _434  and  _436
REMARK  176  A    between atoms: _436  and  _437
REMARK  177  A    between atoms: _440  and  _442
REMARK  178  A    between atoms: _442  and  _443
REMARK  179  A    between atoms: _442  and  _445
REMARK  180  A    between atoms: _445  and  _446
REMARK  181  A    between atoms: _449  and  _451
REMARK  182  A    between atoms: _451  and  _452
REMARK  183  A    between atoms: _451  and  _454
REMARK  184  A    between atoms: _454  and  _455
REMARK  185  A    between atoms: _455  and  _456
REMARK  186  A    between atoms: _459  and  _461
REMARK  187  A    between atoms: _461  and  _462
REMARK  188  A    between atoms: _461  and  _464
REMARK  189  A    between atoms: _464  and  _465
REMARK  190  A    between atoms: _468  and  _470
REMARK  191  A    between atoms: _470  and  _471
REMARK  192  A    between atoms: _470  and  _473
REMARK  193  A    between atoms: _473  and  _474
REMARK  194  A    between atoms: _479  and  _481
REMARK  195  A    between atoms: _481  and  _482
REMARK  196  A    between atoms: _484  and  _486
REMARK  197  A    between atoms: _486  and  _487
REMARK  198  A    between atoms: _490  and  _492
REMARK  199  A    between atoms: _492  and  _493
REMARK  200  A    between atoms: _492  and  _495
REMARK  201  A    between atoms: _495  and  _496
REMARK  202  A    between atoms: _501  and  _503
REMARK  203  A    between atoms: _503  and  _504
REMARK  204  A    between atoms: _503  and  _506
REMARK  205  A    between atoms: _506  and  _507
REMARK  206  A    between atoms: _510  and  _512
REMARK  207  A    between atoms: _512  and  _513
REMARK  208  A    between atoms: _512  and  _515
REMARK  209  A    between atoms: _515  and  _516
REMARK  210  A    between atoms: _519  and  _521
REMARK  211  A    between atoms: _521  and  _522
REMARK  212  A    between atoms: _521  and  _524
REMARK  213  A    between atoms: _524  and  _525
REMARK  214  A    between atoms: _525  and  _526
REMARK  215  A    between atoms: _526  and  _527
REMARK  216  A    between atoms: _536  and  _538
REMARK  217  A    between atoms: _538  and  _539
REMARK  218  A    between atoms: _538  and  _541
REMARK  219  A    between atoms: _541  and  _542
REMARK  220  A    between atoms: _547  and  _549
REMARK  221  A    between atoms: _549  and  _550
REMARK  222  A    between atoms: _549  and  _552
REMARK  223  A    between atoms: _552  and  _553
REMARK  224  A    between atoms: _553  and  _554
REMARK  225  A    between atoms: _557  and  _559
REMARK  226  A    between atoms: _559  and  _560
REMARK  227  A    between atoms: _563  and  _565
REMARK  228  A    between atoms: _565  and  _566
REMARK  229  A    between atoms: _565  and  _568
REMARK  230  A    between atoms: _571  and  _573
REMARK  231  A    between atoms: _573  and  _574
REMARK  232  A    between atoms: _573  and  _576
REMARK  233  A    between atoms: _576  and  _577
REMARK  234  A    between atoms: _580  and  _582
REMARK  235  A    between atoms: _582  and  _583
REMARK  236  A    between atoms: _586  and  _588
REMARK  237  A    between atoms: _588  and  _589
REMARK  238  A    between atoms: _591  and  _593
REMARK  239  A    between atoms: _593  and  _594
REMARK  240  A    between atoms: _596  and  _598
REMARK  241  A    between atoms: _598  and  _599
REMARK  242  A    between atoms: _601  and  _603
REMARK  243  A    between atoms: _603  and  _604
REMARK  244  A    between atoms: _603  and  _606
REMARK  245  A    between atoms: _606  and  _607
REMARK  246  A    between atoms: _613  and  _615
REMARK  247  A    between atoms: _615  and  _616
REMARK  248  A    between atoms: _615  and  _618
REMARK  249  A    between atoms: _618  and  _619
REMARK  250  A    between atoms: _622  and  _624
REMARK  251  A    between atoms: _624  and  _625
REMARK  252  A    between atoms: _624  and  _627
REMARK  253  A    between atoms: _627  and  _628
REMARK  254  A    between atoms: _633  and  _635
REMARK  255  A    between atoms: _635  and  _636
REMARK  256  A    between atoms: _639  and  _641
REMARK  257  A    between atoms: _641  and  _642
REMARK  258  A    between atoms: _641  and  _644
REMARK  259  A    between atoms: _644  and  _645
REMARK  260  A    between atoms: _648  and  _650
REMARK  261  A    between atoms: _650  and  _651
REMARK  262  A    between atoms: _650  and  _653
REMARK  263  A    between atoms: _653  and  _654
REMARK  264  A    between atoms: _654  and  _655
REMARK  265  A    between atoms: _660  and  _662
REMARK  266  A    between atoms: _662  and  _663
REMARK  267  A    between atoms: _662  and  _665
REMARK  268  A    between atoms: _665  and  _666
REMARK                            x       y       z     vdW  Elec       q    Type
REMARK                         _______ _______ _______ _____ _____    ______ ____
ROOT
ATOM      1  CA  HIS A   2     -49.946  19.077  -1.576  0.00  0.00    +0.155 C 
ENDROOT
BRANCH   1   2
ATOM      2  C   HIS A   2     -49.605  17.598  -1.658  0.00  0.00    +0.241 C 
ATOM      3  N   GLU A   3     -49.157  17.023  -0.541  0.00  0.00    -0.297 N 
ATOM      4  H   GLU A   3     -48.879  17.604   0.275  0.00  0.00    +0.150 HD
ATOM      5  O   HIS A   2     -49.769  16.978  -2.760  0.00  0.00    -0.273 OA
BRANCH   3   6
ATOM      6  CA  GLU A   3     -49.062  15.567  -0.479  0.00  0.00    +0.149 C 
BRANCH   6   7
ATOM      7  C   GLU A   3     -50.316  14.798  -0.936  0.00  0.00    +0.241 C 
ATOM      8  N   ALA A   4     -51.506  15.322  -0.657  0.00  0.00    -0.298 N 
ATOM      9  H   ALA A   4     -51.581  16.191  -0.091  0.00  0.00    +0.150 HD
ATOM     10  O   GLU A   3     -50.207  13.733  -1.570  0.00  0.00    -0.273 OA
BRANCH   8  11
ATOM     11  CA  ALA A   4     -52.703  14.658  -1.157  0.00  0.00    +0.137 C 
ATOM     12  CB  ALA A   4     -54.010  15.395  -0.729  0.00  0.00    +0.030 C 
BRANCH  11  13
ATOM     13  C   ALA A   4     -52.620  14.526  -2.665  0.00  0.00    +0.227 C 
ATOM     14  O   ALA A   4     -52.866  13.464  -3.212  0.00  0.00    -0.286 OA
ENDBRANCH  11  13
ENDBRANCH   8  11
ENDBRANCH   6   7
BRANCH   6  15
ATOM     15  CB  GLU A   3     -48.638  15.108   0.887  0.00  0.00    +0.041 C 
BRANCH  15  16
ATOM     16  CG  GLU A   3     -47.239  15.548   1.195  0.00  0.00    +0.116 C 
BRANCH  16  17
ATOM     17  CD  GLU A   3     -47.160  16.911   1.886  0.00  0.00    +0.365 C 
ATOM     18  OE2 GLU A   3     -46.096  17.206   2.445  0.00  0.00    -0.246 OA
ATOM     19  OE1 GLU A   3     -48.146  17.691   1.864  0.00  0.00    -0.246 OA
ENDBRANCH  16  17
ENDBRANCH  15  16
ENDBRANCH   6  15
ENDBRANCH   3   6
ENDBRANCH   1   2
BRANCH   1  22
ATOM     20  C   ARG A   1     -48.868  20.974  -2.789  0.00  0.00    +0.238 C 
ATOM     21  O   ARG A   1     -49.111  21.798  -1.888  0.00  0.00    -0.274 OA
ATOM     22  N   HIS A   2     -49.185  19.680  -2.690  0.00  0.00    -0.297 N 
ATOM     23  H   HIS A   2     -48.872  19.049  -3.455  0.00  0.00    +0.150 HD
BRANCH  20  24
ATOM     24  CA  ARG A   1     -48.148  21.412  -4.104  0.00  0.00    +0.145 C 
BRANCH  24  25
ATOM     25  N   ARG A   1     -47.966  20.359  -5.040  0.00  0.00    -0.238 NA
ATOM     26  H   ARG A   1     -48.780  20.011  -5.585  0.00  0.00    +0.142 HD
ENDBRANCH  24  25
BRANCH  24  27
ATOM     27  CB  ARG A   1     -48.860  22.563  -4.828  0.00  0.00    +0.030 C 
BRANCH  27  28
ATOM     28  CG  ARG A   1     -47.998  23.186  -5.940  0.00  0.00    +0.045 C 
BRANCH  28  29
ATOM     29  CD  ARG A   1     -46.618  23.713  -5.376  0.00  0.00    +0.174 C 
BRANCH  29  30
ATOM     30  NE  ARG A   1     -46.834  24.749  -4.352  0.00  0.00    -0.265 N 
ATOM     31  HE  ARG A   1     -47.077  24.430  -3.392  0.00  0.00    +0.259 HD
ATOM     32  CZ  ARG A   1     -46.742  26.075  -4.560  0.00  0.00    +0.342 C 
ATOM     33  NH2 ARG A   1     -46.988  26.931  -3.553  0.00  0.00    -0.292 N 
ATOM     34 HH21 ARG A   1     -47.249  26.568  -2.614  0.00  0.00    +0.255 HD
ATOM     35 HH22 ARG A   1     -46.917  27.956  -3.713  0.00  0.00    +0.255 HD
ATOM     36  NH1 ARG A   1     -46.375  26.529  -5.763  0.00  0.00    -0.292 N 
ATOM     37 HH11 ARG A   1     -46.301  27.552  -5.932  0.00  0.00    +0.255 HD
ATOM     38 HH12 ARG A   1     -46.163  25.859  -6.529  0.00  0.00    +0.255 HD
ENDBRANCH  29  30
ENDBRANCH  28  29
ENDBRANCH  27  28
ENDBRANCH  24  27
ENDBRANCH  20  24
ENDBRANCH   1  22
BRANCH   1  39
ATOM     39  CB  HIS A   2     -51.465  19.231  -1.787  0.00  0.00    +0.076 C 
BRANCH  39  40
ATOM     40  CG  HIS A   2     -52.286  19.086  -0.537  0.00  0.00    +0.082 A 
ATOM     41  ND1 HIS A   2     -52.209  17.985   0.300  0.00  0.00    -0.227 NA
ATOM     42  CE1 HIS A   2     -53.040  18.143   1.317  0.00  0.00    +0.199 A 
ATOM     43  NE2 HIS A   2     -53.666  19.299   1.171  0.00  0.00    -0.221 NA
ATOM     44  CD2 HIS A   2     -53.221  19.904   0.010  0.00  0.00    +0.115 A 
ENDBRANCH  39  40
ENDBRANCH   1  39
TORSDOF 17
REMARK  Name = ../refined-set-2016/3d7k/3d7k_pocket.pdb
REMARK  268 active torsions:
REMARK  status: ('A' for Active; 'I' for Inactive)
REMARK    1  A    between atoms: _1  and  _3
REMARK    2  A    between atoms: _3  and  _4
REMARK    3  A    between atoms: _3  and  _6
REMARK    4  A    between atoms: _6  and  _7
REMARK    5  A    between atoms: _10  and  _12
REMARK    6  A    between atoms: _12  and  _13
REMARK    7  A    between atoms: _12  and  _15
REMARK    8  A    between atoms: _15  and  _16
REMARK    9  A    between atoms: _20  and  _21
REMARK   10  A    between atoms: _26  and  _28
REMARK   11  A    between atoms: _28  and  _29
REMARK   12  A    between atoms: _28  and  _31
REMARK   13  A    between atoms: _31  and  _32
REMARK   14  A    between atoms: _35  and  _37
REMARK   15  A    between atoms: _37  and  _38
REMARK   16  A    between atoms: _40  and  _42
REMARK   17  A    between atoms: _42  and  _43
REMARK   18  A    between atoms: _46  and  _48
REMARK   19  A    between atoms: _48  and  _49
REMARK   20  A    between atoms: _48  and  _51
REMARK   21  A    between atoms: _51  and  _52
REMARK   22  A    between atoms: _55  and  _57
REMARK   23  A    between atoms: _57  and  _58
REMARK   24  A    between atoms: _57  and  _60
REMARK   25  A    between atoms: _60  and  _61
REMARK   26  A    between atoms: _64  and  _66
REMARK   27  A    between atoms: _66  and  _67
REMARK   28  A    between atoms: _66  and  _69
REMARK   29  A    between atoms: _69  and  _70
REMARK   30  A    between atoms: _75  and  _76
REMARK   31  A    between atoms: _78  and  _80
REMARK   32  A    between atoms: _80  and  _81
REMARK   33  A    between atoms: _80  and  _83
REMARK   34  A    between atoms: _83  and  _84
REMARK   35  A    between atoms: _87  and  _89
REMARK   36  A    between atoms: _89  and  _90
REMARK   37  A    between atoms: _89  and  _92
REMARK   38  A    between atoms: _92  and  _93
REMARK   39  A    between atoms: _103  and  _105
REMARK   40  A    between atoms: _105  and  _106
REMARK   41  A    between atoms: _105  and  _108
REMARK   42  A    between atoms: _108  and  _109
REMARK   43  A    between atoms: _112  and  _114
REMARK   44  A    between atoms: _114  and  _115
REMARK   45  A    between atoms: _114  and  _117
REMARK   46  A    between atoms: _117  and  _118
REMARK   47  A    between atoms: _123  and  _125
REMARK   48  A    between atoms: _125  and  _126
REMARK   49  A    between atoms: _128  and  _130
REMARK   50  A    between atoms: _130  and  _131
REMARK   51  A    between atoms: _130  and  _133
REMARK   52  A    between atoms: _133  and  _134
REMARK   53  A    between atoms: _139  and  _140
REMARK   54  A    between atoms: _142  and  _144
REMARK   55  A    between atoms: _144  and  _145
REMARK   56  A    between atoms: _144  and  _147
REMARK   57  A    between atoms: _147  and  _148
REMARK   58  A    between atoms: _151  and  _153
REMARK   59  A    between atoms: _153  and  _154
REMARK   60  A    between atoms: _156  and  _158
REMARK   61  A    between atoms: _158  and  _159
REMARK   62  A    between atoms: _158  and  _161
REMARK   63  A    between atoms: _161  and  _162
REMARK   64  A    between atoms: _164  and  _166
REMARK   65  A    between atoms: _166  and  _167
REMARK   66  A    between atoms: _166  and  _169
REMARK   67  A    between atoms: _169  and  _170
REMARK   68  A    between atoms: _170  and  _171
REMARK   69  A    between atoms: _173  and  _175
REMARK   70  A    between atoms: _175  and  _176
REMARK   71  A    between atoms: _178  and  _180
REMARK   72  A    between atoms: _180  and  _181
REMARK   73  A    between atoms: _180  and  _183
REMARK   74  A    between atoms: _186  and  _188
REMARK   75  A    between atoms: _188  and  _189
REMARK   76  A    between atoms: _188  and  _191
REMARK   77  A    between atoms: _191  and  _192
REMARK   78  A    between atoms: _195  and  _197
REMARK   79  A    between atoms: _197  and  _198
REMARK   80  A    between atoms: _200  and  _202
REMARK   81  A    between atoms: _202  and  _203
REMARK   82  A    between atoms: _202  and  _205
REMARK   83  A    between atoms: _205  and  _206
REMARK   84  A    between atoms: _206  and  _207
REMARK   85  A    between atoms: _207  and  CA_676
REMARK   86  A    between atoms: _209  and  _211
REMARK   87  A    between atoms: _211  and  _212
REMARK   88  A    between atoms: _214  and  _216
REMARK   89  A    between atoms: _216  and  _217
REMARK   90  A    between atoms: _216  and  _219
REMARK   91  A    between atoms: _219  and  _220
REMARK   92  A    between atoms: _222  and  _224
REMARK   93  A    between atoms: _224  and  _225
REMARK   94  A    between atoms: _224  and  _227
REMARK   95  A    between atoms: _230  and  _232
REMARK   96  A    between atoms: _232  and  _233
REMARK   97  A    between atoms: _235  and  _237
REMARK   98  A    between atoms: _237  and  _238
REMARK   99  A    between atoms: _237  and  _240
REMARK  100  A    between atoms: _240  and  _241
REMARK  101  A    between atoms: _246  and  _247
REMARK  102  A    between atoms: _249  and  _251
REMARK  103  A    between atoms: _251  and  _252
REMARK  104  A    between atoms: _251  and  _254
REMARK  105  A    between atoms: _254  and  _255
REMARK  106  A    between atoms: _258  and  _260
REMARK  107  A    between atoms: _260  and  _261
REMARK  108  A    between atoms: _260  and  _263
REMARK  109  A    between atoms: _263  and  _264
REMARK  110  A    between atoms: _264  and  _265
REMARK  111  A    between atoms: _267  and  _269
REMARK  112  A    between atoms: _269  and  _270
REMARK  113  A    between atoms: _269  and  _272
REMARK  114  A    between atoms: _272  and  _273
REMARK  115  A    between atoms: _278  and  _280
REMARK  116  A    between atoms: _280  and  _281
REMARK  117  A    between atoms: _280  and  _283
REMARK  118  A    between atoms: _283  and  _284
REMARK  119  A    between atoms: _289  and  _291
REMARK  120  A    between atoms: _291  and  _292
REMARK  121  A    between atoms: _291  and  _294
REMARK  122  A    between atoms: _294  and  _295
REMARK  123  A    between atoms: _295  and  _296
REMARK  124  A    between atoms: _301  and  _303
REMARK  125  A    between atoms: _303  and  _304
REMARK  126  A    between atoms: _303  and  _306
REMARK  127  A    between atoms: _306  and  _307
REMARK  128  A    between atoms: _309  and  _311
REMARK  129  A    between atoms: _311  and  _312
REMARK  130  A    between atoms: _311  and  _314
REMARK  131  A    between atoms: _314  and  _315
REMARK  132  A    between atoms: _325  and  _327
REMARK  133  A    between atoms: _327  and  _328
REMARK  134  A    between atoms: _330  and  _332
REMARK  135  A    between atoms: _332  and  _333
REMARK  136  A    between atoms: _336  and  _338
REMARK  137  A    between atoms: _338  and  _339
REMARK  138  A    between atoms: _338  and  _341
REMARK  139  A    between atoms: _341  and  _342
REMARK  140  A    between atoms: _345  and  _347
REMARK  141  A    between atoms: _347  and  _348
REMARK  142  A    between atoms: _347  and  _350
REMARK  143  A    between atoms: _350  and  _351
REMARK  144  A    between atoms: _354  and  _356
REMARK  145  A    between atoms: _356  and  _357
REMARK  146  A    between atoms: _356  and  _359
REMARK  147  A    between atoms: _359  and  _360
REMARK  148  A    between atoms: _365  and  _367
REMARK  149  A    between atoms: _367  and  _368
REMARK  150  A    between atoms: _367  and  _370
REMARK  151  A    between atoms: _370  and  _371
REMARK  152  A    between atoms: _377  and  _379
REMARK  153  A    between atoms: _379  and  _380
REMARK  154  A    between atoms: _379  and  _382
REMARK  155  A    between atoms: _382  and  _383
REMARK  156  A    between atoms: _383  and  _384
REMARK  157  A    between atoms: _389  and  _391
REMARK  158  A    between atoms: _391  and  _392
REMARK  159  A    between atoms: _394  and  _396
REMARK  160  A    between atoms: _396  and  _397
REMARK  161  A    between atoms: _396  and  _399
REMARK  162  A    between atoms: _399  and  _400
REMARK  163  A    between atoms: _403  and  _405
REMARK  164  A    between atoms: _405  and  _406
REMARK  165  A    between atoms: _405  and  _408
REMARK  166  A    between atoms: _408  and  _409
REMARK  167  A    between atoms: _412  and  _414
REMARK  168  A    between atoms: _414  and  _415
REMARK  169  A    between atoms: _414  and  _417
REMARK  170  A    between atoms: _417  and  _418
REMARK  171  A    between atoms: _423  and  _424
REMARK  172  A    between atoms: _426  and  _428
REMARK  173  A    between atoms: _428  and  _429
REMARK  174  A    between atoms: _428  and  _431
REMARK  175  A    between atoms: _434  and  _436
REMARK  176  A    between atoms: _436  and  _437
REMARK  177  A    between atoms: _440  and  _442
REMARK  178  A    between atoms: _442  and  _443
REMARK  179  A    between atoms: _442  and  _445
REMARK  180  A    between atoms: _445  and  _446
REMARK  181  A    between atoms: _449  and  _451
REMARK  182  A    between atoms: _451  and  _452
REMARK  183  A    between atoms: _451  and  _454
REMARK  184  A    between atoms: _454  and  _455
REMARK  185  A    between atoms: _455  and  _456
REMARK  186  A    between atoms: _459  and  _461
REMARK  187  A    between atoms: _461  and  _462
REMARK  188  A    between atoms: _461  and  _464
REMARK  189  A    between atoms: _464  and  _465
REMARK  190  A    between atoms: _468  and  _470
REMARK  191  A    between atoms: _470  and  _471
REMARK  192  A    between atoms: _470  and  _473
REMARK  193  A    between atoms: _473  and  _474
REMARK  194  A    between atoms: _479  and  _481
REMARK  195  A    between atoms: _481  and  _482
REMARK  196  A    between atoms: _484  and  _486
REMARK  197  A    between atoms: _486  and  _487
REMARK  198  A    between atoms: _490  and  _492
REMARK  199  A    between atoms: _492  and  _493
REMARK  200  A    between atoms: _492  and  _495
REMARK  201  A    between atoms: _495  and  _496
REMARK  202  A    between atoms: _501  and  _503
REMARK  203  A    between atoms: _503  and  _504
REMARK  204  A    between atoms: _503  and  _506
REMARK  205  A    between atoms: _506  and  _507
REMARK  206  A    between atoms: _510  and  _512
REMARK  207  A    between atoms: _512  and  _513
REMARK  208  A    between atoms: _512  and  _515
REMARK  209  A    between atoms: _515  and  _516
REMARK  210  A    between atoms: _519  and  _521
REMARK  211  A    between atoms: _521  and  _522
REMARK  212  A    between atoms: _521  and  _524
REMARK  213  A    between atoms: _524  and  _525
REMARK  214  A    between atoms: _525  and  _526
REMARK  215  A    between atoms: _526  and  _527
REMARK  216  A    between atoms: _536  and  _538
REMARK  217  A    between atoms: _538  and  _539
REMARK  218  A    between atoms: _538  and  _541
REMARK  219  A    between atoms: _541  and  _542
REMARK  220  A    between atoms: _547  and  _549
REMARK  221  A    between atoms: _549  and  _550
REMARK  222  A    between atoms: _549  and  _552
REMARK  223  A    between atoms: _552  and  _553
REMARK  224  A    between atoms: _553  and  _554
REMARK  225  A    between atoms: _557  and  _559
REMARK  226  A    between atoms: _559  and  _560
REMARK  227  A    between atoms: _563  and  _565
REMARK  228  A    between atoms: _565  and  _566
REMARK  229  A    between atoms: _565  and  _568
REMARK  230  A    between atoms: _571  and  _573
REMARK  231  A    between atoms: _573  and  _574
REMARK  232  A    between atoms: _573  and  _576
REMARK  233  A    between atoms: _576  and  _577
REMARK  234  A    between atoms: _580  and  _582
REMARK  235  A    between atoms: _582  and  _583
REMARK  236  A    between atoms: _586  and  _588
REMARK  237  A    between atoms: _588  and  _589
REMARK  238  A    between atoms: _591  and  _593
REMARK  239  A    between atoms: _593  and  _594
REMARK  240  A    between atoms: _596  and  _598
REMARK  241  A    between atoms: _598  and  _599
REMARK  242  A    between atoms: _601  and  _603
REMARK  243  A    between atoms: _603  and  _604
REMARK  244  A    between atoms: _603  and  _606
REMARK  245  A    between atoms: _606  and  _607
REMARK  246  A    between atoms: _613  and  _615
REMARK  247  A    between atoms: _615  and  _616
REMARK  248  A    between atoms: _615  and  _618
REMARK  249  A    between atoms: _618  and  _619
REMARK  250  A    between atoms: _622  and  _624
REMARK  251  A    between atoms: _624  and  _625
REMARK  252  A    between atoms: _624  and  _627
REMARK  253  A    between atoms: _627  and  _628
REMARK  254  A    between atoms: _633  and  _635
REMARK  255  A    between atoms: _635  and  _636
REMARK  256  A    between atoms: _639  and  _641
REMARK  257  A    between atoms: _641  and  _642
REMARK  258  A    between atoms: _641  and  _644
REMARK  259  A    between atoms: _644  and  _645
REMARK  260  A    between atoms: _648  and  _650
REMARK  261  A    between atoms: _650  and  _651
REMARK  262  A    between atoms: _650  and  _653
REMARK  263  A    between atoms: _653  and  _654
REMARK  264  A    between atoms: _654  and  _655
REMARK  265  A    between atoms: _660  and  _662
REMARK  266  A    between atoms: _662  and  _663
REMARK  267  A    between atoms: _662  and  _665
REMARK  268  A    between atoms: _665  and  _666
REMARK                            x       y       z     vdW  Elec       q    Type
REMARK                         _______ _______ _______ _____ _____    ______ ____
ROOT
ATOM      1  C   GLY A   6     -47.287  13.564   4.969  0.00  0.00    +0.243 C 
ATOM      2  N   PHE A   7     -47.147  12.719   6.002  0.00  0.00    -0.297 N 
ATOM      3  H   PHE A   7     -46.423  12.925   6.719  0.00  0.00    +0.150 HD
ATOM      4  O   GLY A   6     -48.056  13.378   4.022  0.00  0.00    -0.273 OA
ENDROOT
BRANCH   1   5
ATOM      5  CA  GLY A   6     -46.422  14.791   5.026  0.00  0.00    +0.176 C 
BRANCH   5   7
ATOM      6  C   GLY A   5     -47.723  15.808   6.795  0.00  0.00    +0.243 C 
ATOM      7  N   GLY A   6     -46.532  15.416   6.343  0.00  0.00    -0.295 N 
ATOM      8  H   GLY A   6     -45.682  15.555   6.926  0.00  0.00    +0.150 HD
ATOM      9  O   GLY A   5     -48.780  15.664   6.142  0.00  0.00    -0.273 OA
BRANCH   6  10
ATOM     10  CA  GLY A   5     -47.766  16.392   8.173  0.00  0.00    +0.176 C 
BRANCH  10  12
ATOM     11  C   GLY A   4     -46.724  14.506   9.373  0.00  0.00    +0.243 C 
ATOM     12  N   GLY A   5     -46.833  15.813   9.100  0.00  0.00    -0.295 N 
ATOM     13  H   GLY A   5     -46.191  16.461   9.599  0.00  0.00    +0.150 HD
ATOM     14  O   GLY A   4     -47.427  13.618   8.851  0.00  0.00    -0.273 OA
BRANCH  11  15
ATOM     15  CA  GLY A   4     -45.651  14.167  10.385  0.00  0.00    +0.176 C 
BRANCH  15  17
ATOM     16  C   ALA A   3     -43.739  13.661   8.930  0.00  0.00    +0.241 C 
ATOM     17  N   GLY A   4     -44.673  13.250   9.789  0.00  0.00    -0.295 N 
ATOM     18  H   GLY A   4     -44.709  12.243  10.046  0.00  0.00    +0.150 HD
ATOM     19  O   ALA A   3     -43.758  14.774   8.444  0.00  0.00    -0.273 OA
BRANCH  16  20
ATOM     20  CA  ALA A   3     -42.636  12.687   8.522  0.00  0.00    +0.149 C 
ATOM     21  CB  ALA A   3     -41.488  12.763   9.498  0.00  0.00    +0.031 C 
BRANCH  20  23
ATOM     22  C   THR A   2     -42.890  12.946   6.100  0.00  0.00    +0.243 C 
ATOM     23  N   ALA A   3     -42.130  12.950   7.197  0.00  0.00    -0.297 N 
ATOM     24  H   ALA A   3     -41.116  13.154   7.091  0.00  0.00    +0.150 HD
ATOM     25  O   THR A   2     -44.150  12.818   6.148  0.00  0.00    -0.273 OA
BRANCH  22  26
ATOM     26  CA  THR A   2     -42.109  13.172   4.727  0.00  0.00    +0.176 C 
BRANCH  26  28
ATOM     27  C   VAL A   1     -42.881  11.809   2.809  0.00  0.00    +0.238 C 
ATOM     28  N   THR A   2     -42.858  12.974   3.481  0.00  0.00    -0.295 N 
ATOM     29  H   THR A   2     -43.399  13.775   3.098  0.00  0.00    +0.150 HD
ATOM     30  O   VAL A   1     -42.298  10.749   3.175  0.00  0.00    -0.274 OA
BRANCH  27  31
ATOM     31  CA  VAL A   1     -43.711  11.808   1.537  0.00  0.00    +0.145 C 
BRANCH  31  32
ATOM     32  CB  VAL A   1     -45.244  11.825   1.868  0.00  0.00    +0.025 C 
ATOM     33  CG2 VAL A   1     -45.666  10.605   2.682  0.00  0.00    +0.002 C 
ATOM     34  CG1 VAL A   1     -46.080  11.910   0.593  0.00  0.00    +0.002 C 
ENDBRANCH  31  32
BRANCH  31  35
ATOM     35  N   VAL A   1     -43.349  10.648   0.713  0.00  0.00    -0.238 NA
ATOM     36  H   VAL A   1     -43.106   9.735   1.148  0.00  0.00    +0.142 HD
ENDBRANCH  31  35
ENDBRANCH  27  31
ENDBRANCH  26  28
BRANCH  26  37
ATOM     37  CB  THR A   2     -41.454  14.550   4.727  0.00  0.00    +0.137 C 
ATOM     38  CG2 THR A   2     -42.402  15.623   5.306  0.00  0.00    +0.034 C 
BRANCH  37  39
ATOM     39  OG1 THR A   2     -40.295  14.500   5.537  0.00  0.00    -0.382 OA
ATOM     40  HG1 THR A   2     -39.861  15.390   5.545  0.00  0.00    +0.210 HD
ENDBRANCH  37  39
ENDBRANCH  26  37
ENDBRANCH  22  26
ENDBRANCH  20  23
ENDBRANCH  16  20
ENDBRANCH  15  17
ENDBRANCH  11  15
ENDBRANCH  10  12
ENDBRANCH   6  10
ENDBRANCH   5   7
ENDBRANCH   1   5
BRANCH   2  41
ATOM     41  CA  PHE A   7     -47.964  11.529   6.161  0.00  0.00    +0.153 C 
BRANCH  41  42
ATOM     42  C   PHE A   7     -49.457  11.825   6.309  0.00  0.00    +0.241 C 
ATOM     43  N   THR A   8     -49.797  12.718   7.217  0.00  0.00    -0.295 N 
ATOM     44  H   THR A   8     -49.079  13.277   7.721  0.00  0.00    +0.150 HD
ATOM     45  O   PHE A   7     -50.314  11.227   5.622  0.00  0.00    -0.273 OA
BRANCH  43  46
ATOM     46  CA  THR A   8     -51.228  12.892   7.488  0.00  0.00    +0.176 C 
BRANCH  46  47
ATOM     47  C   THR A   8     -51.917  13.402   6.248  0.00  0.00    +0.243 C 
ATOM     48  O   THR A   8     -53.046  12.956   5.951  0.00  0.00    -0.273 OA
ATOM     49  N   ASN A   9     -51.228  14.269   5.475  0.00  0.00    -0.297 N 
ATOM     50  H   ASN A   9     -50.300  14.614   5.794  0.00  0.00    +0.150 HD
BRANCH  49  51
ATOM     51  CA  ASN A   9     -51.783  14.744   4.157  0.00  0.00    +0.158 C 
BRANCH  51  52
ATOM     52  C   ASN A   9     -51.978  13.673   3.129  0.00  0.00    +0.241 C 
ATOM     53  N   ALA A  10     -51.367  12.500   3.322  0.00  0.00    -0.298 N 
ATOM     54  H   ALA A  10     -50.793  12.365   4.178  0.00  0.00    +0.150 HD
ATOM     55  O   ASN A   9     -52.718  13.899   2.192  0.00  0.00    -0.273 OA
BRANCH  53  56
ATOM     56  CA  ALA A  10     -51.482  11.402   2.366  0.00  0.00    +0.137 C 
ATOM     57  CB  ALA A  10     -50.183  10.604   2.383  0.00  0.00    +0.030 C 
BRANCH  56  58
ATOM     58  C   ALA A  10     -52.675  10.474   2.682  0.00  0.00    +0.227 C 
ATOM     59  O   ALA A  10     -53.001   9.546   1.927  0.00  0.00    -0.286 OA
ENDBRANCH  56  58
ENDBRANCH  53  56
ENDBRANCH  51  52
BRANCH  51  60
ATOM     60  CB  ASN A   9     -51.000  15.878   3.504  0.00  0.00    +0.114 C 
BRANCH  60  61
ATOM     61  CG  ASN A   9     -50.974  17.139   4.372  0.00  0.00    +0.222 C 
ATOM     62  OD1 ASN A   9     -51.813  17.324   5.291  0.00  0.00    -0.275 OA
ATOM     63  ND2 ASN A   9     -50.007  17.980   4.119  0.00  0.00    -0.329 N 
ATOM     64 HD21 ASN A   9     -49.908  18.845   4.688  0.00  0.00    +0.145 HD
ATOM     65 HD22 ASN A   9     -49.336  17.785   3.348  0.00  0.00    +0.145 HD
ENDBRANCH  60  61
ENDBRANCH  51  60
ENDBRANCH  49  51
ENDBRANCH  46  47
BRANCH  46  66
ATOM     66  CB  THR A   8     -51.489  13.796   8.645  0.00  0.00    +0.137 C 
ATOM     67  CG2 THR A   8     -50.880  13.242   9.918  0.00  0.00    +0.034 C 
BRANCH  66  68
ATOM     68  OG1 THR A   8     -50.882  15.043   8.362  0.00  0.00    -0.382 OA
ATOM     69  HG1 THR A   8     -51.274  15.420   7.535  0.00  0.00    +0.210 HD
ENDBRANCH  66  68
ENDBRANCH  46  66
ENDBRANCH  43  46
ENDBRANCH  41  42
BRANCH  41  70
ATOM     70  CB  PHE A   7     -47.496  10.648   7.312  0.00  0.00    +0.055 C 
BRANCH  70  71
ATOM     71  CG  PHE A   7     -48.423   9.502   7.555  0.00  0.00    -0.020 A 
ATOM     72  CD2 PHE A   7     -49.344   9.535   8.605  0.00  0.00    -0.004 A 
ATOM     73  CE2 PHE A   7     -50.248   8.509   8.810  0.00  0.00    -0.000 A 
ATOM     74  CZ  PHE A   7     -50.278   7.464   7.950  0.00  0.00    -0.000 A 
ATOM     75  CE1 PHE A   7     -49.384   7.409   6.888  0.00  0.00    -0.000 A 
ATOM     76  CD1 PHE A   7     -48.460   8.432   6.689  0.00  0.00    -0.004 A 
ENDBRANCH  70  71
ENDBRANCH  41  70
ENDBRANCH   2  41
TORSDOF 29
REMARK  Name = ../refined-set-2016/3d7k/3d7k_pocket.pdb
REMARK  268 active torsions:
REMARK  status: ('A' for Active; 'I' for Inactive)
REMARK    1  A    between atoms: _1  and  _3
REMARK    2  A    between atoms: _3  and  _4
REMARK    3  A    between atoms: _3  and  _6
REMARK    4  A    between atoms: _6  and  _7
REMARK    5  A    between atoms: _10  and  _12
REMARK    6  A    between atoms: _12  and  _13
REMARK    7  A    between atoms: _12  and  _15
REMARK    8  A    between atoms: _15  and  _16
REMARK    9  A    between atoms: _20  and  _21
REMARK   10  A    between atoms: _26  and  _28
REMARK   11  A    between atoms: _28  and  _29
REMARK   12  A    between atoms: _28  and  _31
REMARK   13  A    between atoms: _31  and  _32
REMARK   14  A    between atoms: _35  and  _37
REMARK   15  A    between atoms: _37  and  _38
REMARK   16  A    between atoms: _40  and  _42
REMARK   17  A    between atoms: _42  and  _43
REMARK   18  A    between atoms: _46  and  _48
REMARK   19  A    between atoms: _48  and  _49
REMARK   20  A    between atoms: _48  and  _51
REMARK   21  A    between atoms: _51  and  _52
REMARK   22  A    between atoms: _55  and  _57
REMARK   23  A    between atoms: _57  and  _58
REMARK   24  A    between atoms: _57  and  _60
REMARK   25  A    between atoms: _60  and  _61
REMARK   26  A    between atoms: _64  and  _66
REMARK   27  A    between atoms: _66  and  _67
REMARK   28  A    between atoms: _66  and  _69
REMARK   29  A    between atoms: _69  and  _70
REMARK   30  A    between atoms: _75  and  _76
REMARK   31  A    between atoms: _78  and  _80
REMARK   32  A    between atoms: _80  and  _81
REMARK   33  A    between atoms: _80  and  _83
REMARK   34  A    between atoms: _83  and  _84
REMARK   35  A    between atoms: _87  and  _89
REMARK   36  A    between atoms: _89  and  _90
REMARK   37  A    between atoms: _89  and  _92
REMARK   38  A    between atoms: _92  and  _93
REMARK   39  A    between atoms: _103  and  _105
REMARK   40  A    between atoms: _105  and  _106
REMARK   41  A    between atoms: _105  and  _108
REMARK   42  A    between atoms: _108  and  _109
REMARK   43  A    between atoms: _112  and  _114
REMARK   44  A    between atoms: _114  and  _115
REMARK   45  A    between atoms: _114  and  _117
REMARK   46  A    between atoms: _117  and  _118
REMARK   47  A    between atoms: _123  and  _125
REMARK   48  A    between atoms: _125  and  _126
REMARK   49  A    between atoms: _128  and  _130
REMARK   50  A    between atoms: _130  and  _131
REMARK   51  A    between atoms: _130  and  _133
REMARK   52  A    between atoms: _133  and  _134
REMARK   53  A    between atoms: _139  and  _140
REMARK   54  A    between atoms: _142  and  _144
REMARK   55  A    between atoms: _144  and  _145
REMARK   56  A    between atoms: _144  and  _147
REMARK   57  A    between atoms: _147  and  _148
REMARK   58  A    between atoms: _151  and  _153
REMARK   59  A    between atoms: _153  and  _154
REMARK   60  A    between atoms: _156  and  _158
REMARK   61  A    between atoms: _158  and  _159
REMARK   62  A    between atoms: _158  and  _161
REMARK   63  A    between atoms: _161  and  _162
REMARK   64  A    between atoms: _164  and  _166
REMARK   65  A    between atoms: _166  and  _167
REMARK   66  A    between atoms: _166  and  _169
REMARK   67  A    between atoms: _169  and  _170
REMARK   68  A    between atoms: _170  and  _171
REMARK   69  A    between atoms: _173  and  _175
REMARK   70  A    between atoms: _175  and  _176
REMARK   71  A    between atoms: _178  and  _180
REMARK   72  A    between atoms: _180  and  _181
REMARK   73  A    between atoms: _180  and  _183
REMARK   74  A    between atoms: _186  and  _188
REMARK   75  A    between atoms: _188  and  _189
REMARK   76  A    between atoms: _188  and  _191
REMARK   77  A    between atoms: _191  and  _192
REMARK   78  A    between atoms: _195  and  _197
REMARK   79  A    between atoms: _197  and  _198
REMARK   80  A    between atoms: _200  and  _202
REMARK   81  A    between atoms: _202  and  _203
REMARK   82  A    between atoms: _202  and  _205
REMARK   83  A    between atoms: _205  and  _206
REMARK   84  A    between atoms: _206  and  _207
REMARK   85  A    between atoms: _207  and  CA_676
REMARK   86  A    between atoms: _209  and  _211
REMARK   87  A    between atoms: _211  and  _212
REMARK   88  A    between atoms: _214  and  _216
REMARK   89  A    between atoms: _216  and  _217
REMARK   90  A    between atoms: _216  and  _219
REMARK   91  A    between atoms: _219  and  _220
REMARK   92  A    between atoms: _222  and  _224
REMARK   93  A    between atoms: _224  and  _225
REMARK   94  A    between atoms: _224  and  _227
REMARK   95  A    between atoms: _230  and  _232
REMARK   96  A    between atoms: _232  and  _233
REMARK   97  A    between atoms: _235  and  _237
REMARK   98  A    between atoms: _237  and  _238
REMARK   99  A    between atoms: _237  and  _240
REMARK  100  A    between atoms: _240  and  _241
REMARK  101  A    between atoms: _246  and  _247
REMARK  102  A    between atoms: _249  and  _251
REMARK  103  A    between atoms: _251  and  _252
REMARK  104  A    between atoms: _251  and  _254
REMARK  105  A    between atoms: _254  and  _255
REMARK  106  A    between atoms: _258  and  _260
REMARK  107  A    between atoms: _260  and  _261
REMARK  108  A    between atoms: _260  and  _263
REMARK  109  A    between atoms: _263  and  _264
REMARK  110  A    between atoms: _264  and  _265
REMARK  111  A    between atoms: _267  and  _269
REMARK  112  A    between atoms: _269  and  _270
REMARK  113  A    between atoms: _269  and  _272
REMARK  114  A    between atoms: _272  and  _273
REMARK  115  A    between atoms: _278  and  _280
REMARK  116  A    between atoms: _280  and  _281
REMARK  117  A    between atoms: _280  and  _283
REMARK  118  A    between atoms: _283  and  _284
REMARK  119  A    between atoms: _289  and  _291
REMARK  120  A    between atoms: _291  and  _292
REMARK  121  A    between atoms: _291  and  _294
REMARK  122  A    between atoms: _294  and  _295
REMARK  123  A    between atoms: _295  and  _296
REMARK  124  A    between atoms: _301  and  _303
REMARK  125  A    between atoms: _303  and  _304
REMARK  126  A    between atoms: _303  and  _306
REMARK  127  A    between atoms: _306  and  _307
REMARK  128  A    between atoms: _309  and  _311
REMARK  129  A    between atoms: _311  and  _312
REMARK  130  A    between atoms: _311  and  _314
REMARK  131  A    between atoms: _314  and  _315
REMARK  132  A    between atoms: _325  and  _327
REMARK  133  A    between atoms: _327  and  _328
REMARK  134  A    between atoms: _330  and  _332
REMARK  135  A    between atoms: _332  and  _333
REMARK  136  A    between atoms: _336  and  _338
REMARK  137  A    between atoms: _338  and  _339
REMARK  138  A    between atoms: _338  and  _341
REMARK  139  A    between atoms: _341  and  _342
REMARK  140  A    between atoms: _345  and  _347
REMARK  141  A    between atoms: _347  and  _348
REMARK  142  A    between atoms: _347  and  _350
REMARK  143  A    between atoms: _350  and  _351
REMARK  144  A    between atoms: _354  and  _356
REMARK  145  A    between atoms: _356  and  _357
REMARK  146  A    between atoms: _356  and  _359
REMARK  147  A    between atoms: _359  and  _360
REMARK  148  A    between atoms: _365  and  _367
REMARK  149  A    between atoms: _367  and  _368
REMARK  150  A    between atoms: _367  and  _370
REMARK  151  A    between atoms: _370  and  _371
REMARK  152  A    between atoms: _377  and  _379
REMARK  153  A    between atoms: _379  and  _380
REMARK  154  A    between atoms: _379  and  _382
REMARK  155  A    between atoms: _382  and  _383
REMARK  156  A    between atoms: _383  and  _384
REMARK  157  A    between atoms: _389  and  _391
REMARK  158  A    between atoms: _391  and  _392
REMARK  159  A    between atoms: _394  and  _396
REMARK  160  A    between atoms: _396  and  _397
REMARK  161  A    between atoms: _396  and  _399
REMARK  162  A    between atoms: _399  and  _400
REMARK  163  A    between atoms: _403  and  _405
REMARK  164  A    between atoms: _405  and  _406
REMARK  165  A    between atoms: _405  and  _408
REMARK  166  A    between atoms: _408  and  _409
REMARK  167  A    between atoms: _412  and  _414
REMARK  168  A    between atoms: _414  and  _415
REMARK  169  A    between atoms: _414  and  _417
REMARK  170  A    between atoms: _417  and  _418
REMARK  171  A    between atoms: _423  and  _424
REMARK  172  A    between atoms: _426  and  _428
REMARK  173  A    between atoms: _428  and  _429
REMARK  174  A    between atoms: _428  and  _431
REMARK  175  A    between atoms: _434  and  _436
REMARK  176  A    between atoms: _436  and  _437
REMARK  177  A    between atoms: _440  and  _442
REMARK  178  A    between atoms: _442  and  _443
REMARK  179  A    between atoms: _442  and  _445
REMARK  180  A    between atoms: _445  and  _446
REMARK  181  A    between atoms: _449  and  _451
REMARK  182  A    between atoms: _451  and  _452
REMARK  183  A    between atoms: _451  and  _454
REMARK  184  A    between atoms: _454  and  _455
REMARK  185  A    between atoms: _455  and  _456
REMARK  186  A    between atoms: _459  and  _461
REMARK  187  A    between atoms: _461  and  _462
REMARK  188  A    between atoms: _461  and  _464
REMARK  189  A    between atoms: _464  and  _465
REMARK  190  A    between atoms: _468  and  _470
REMARK  191  A    between atoms: _470  and  _471
REMARK  192  A    between atoms: _470  and  _473
REMARK  193  A    between atoms: _473  and  _474
REMARK  194  A    between atoms: _479  and  _481
REMARK  195  A    between atoms: _481  and  _482
REMARK  196  A    between atoms: _484  and  _486
REMARK  197  A    between atoms: _486  and  _487
REMARK  198  A    between atoms: _490  and  _492
REMARK  199  A    between atoms: _492  and  _493
REMARK  200  A    between atoms: _492  and  _495
REMARK  201  A    between atoms: _495  and  _496
REMARK  202  A    between atoms: _501  and  _503
REMARK  203  A    between atoms: _503  and  _504
REMARK  204  A    between atoms: _503  and  _506
REMARK  205  A    between atoms: _506  and  _507
REMARK  206  A    between atoms: _510  and  _512
REMARK  207  A    between atoms: _512  and  _513
REMARK  208  A    between atoms: _512  and  _515
REMARK  209  A    between atoms: _515  and  _516
REMARK  210  A    between atoms: _519  and  _521
REMARK  211  A    between atoms: _521  and  _522
REMARK  212  A    between atoms: _521  and  _524
REMARK  213  A    between atoms: _524  and  _525
REMARK  214  A    between atoms: _525  and  _526
REMARK  215  A    between atoms: _526  and  _527
REMARK  216  A    between atoms: _536  and  _538
REMARK  217  A    between atoms: _538  and  _539
REMARK  218  A    between atoms: _538  and  _541
REMARK  219  A    between atoms: _541  and  _542
REMARK  220  A    between atoms: _547  and  _549
REMARK  221  A    between atoms: _549  and  _550
REMARK  222  A    between atoms: _549  and  _552
REMARK  223  A    between atoms: _552  and  _553
REMARK  224  A    between atoms: _553  and  _554
REMARK  225  A    between atoms: _557  and  _559
REMARK  226  A    between atoms: _559  and  _560
REMARK  227  A    between atoms: _563  and  _565
REMARK  228  A    between atoms: _565  and  _566
REMARK  229  A    between atoms: _565  and  _568
REMARK  230  A    between atoms: _571  and  _573
REMARK  231  A    between atoms: _573  and  _574
REMARK  232  A    between atoms: _573  and  _576
REMARK  233  A    between atoms: _576  and  _577
REMARK  234  A    between atoms: _580  and  _582
REMARK  235  A    between atoms: _582  and  _583
REMARK  236  A    between atoms: _586  and  _588
REMARK  237  A    between atoms: _588  and  _589
REMARK  238  A    between atoms: _591  and  _593
REMARK  239  A    between atoms: _593  and  _594
REMARK  240  A    between atoms: _596  and  _598
REMARK  241  A    between atoms: _598  and  _599
REMARK  242  A    between atoms: _601  and  _603
REMARK  243  A    between atoms: _603  and  _604
REMARK  244  A    between atoms: _603  and  _606
REMARK  245  A    between atoms: _606  and  _607
REMARK  246  A    between atoms: _613  and  _615
REMARK  247  A    between atoms: _615  and  _616
REMARK  248  A    between atoms: _615  and  _618
REMARK  249  A    between atoms: _618  and  _619
REMARK  250  A    between atoms: _622  and  _624
REMARK  251  A    between atoms: _624  and  _625
REMARK  252  A    between atoms: _624  and  _627
REMARK  253  A    between atoms: _627  and  _628
REMARK  254  A    between atoms: _633  and  _635
REMARK  255  A    between atoms: _635  and  _636
REMARK  256  A    between atoms: _639  and  _641
REMARK  257  A    between atoms: _641  and  _642
REMARK  258  A    between atoms: _641  and  _644
REMARK  259  A    between atoms: _644  and  _645
REMARK  260  A    between atoms: _648  and  _650
REMARK  261  A    between atoms: _650  and  _651
REMARK  262  A    between atoms: _650  and  _653
REMARK  263  A    between atoms: _653  and  _654
REMARK  264  A    between atoms: _654  and  _655
REMARK  265  A    between atoms: _660  and  _662
REMARK  266  A    between atoms: _662  and  _663
REMARK  267  A    between atoms: _662  and  _665
REMARK  268  A    between atoms: _665  and  _666
REMARK                            x       y       z     vdW  Elec       q    Type
REMARK                         _______ _______ _______ _____ _____    ______ ____
ROOT
ATOM      1  C   LEU A   1     -40.775  16.715  14.481  0.00  0.00    +0.238 C 
ATOM      2  N   GLN A   2     -42.055  16.597  14.121  0.00  0.00    -0.298 N 
ATOM      3  H   GLN A   2     -42.758  17.202  14.591  0.00  0.00    +0.150 HD
ATOM      4  O   LEU A   1     -39.873  15.987  14.049  0.00  0.00    -0.274 OA
ENDROOT
BRANCH   1   5
ATOM      5  CA  LEU A   1     -40.449  17.884  15.425  0.00  0.00    +0.145 C 
BRANCH   5   6
ATOM      6  N   LEU A   1     -39.832  17.535  16.732  0.00  0.00    -0.238 NA
ATOM      7  H   LEU A   1     -39.123  18.191  17.117  0.00  0.00    +0.142 HD
ENDBRANCH   5   6
BRANCH   5   8
ATOM      8  CB  LEU A   1     -39.515  18.832  14.659  0.00  0.00    +0.026 C 
BRANCH   8   9
ATOM      9  CG  LEU A   1     -39.805  19.181  13.193  0.00  0.00    +0.002 C 
ATOM     10  CD2 LEU A   1     -40.884  20.283  13.124  0.00  0.00    +0.000 C 
ATOM     11  CD1 LEU A   1     -38.533  19.547  12.435  0.00  0.00    +0.000 C 
ENDBRANCH   8   9
ENDBRANCH   5   8
ENDBRANCH   1   5
BRANCH   2  12
ATOM     12  CA  GLN A   2     -42.518  15.660  13.099  0.00  0.00    +0.137 C 
BRANCH  12  13
ATOM     13  C   GLN A   2     -42.390  14.193  13.490  0.00  0.00    +0.227 C 
ATOM     14  O   GLN A   2     -42.499  13.322  12.640  0.00  0.00    -0.286 OA
ENDBRANCH  12  13
BRANCH  12  15
ATOM     15  CB  GLN A   2     -41.842  15.915  11.747  0.00  0.00    +0.037 C 
BRANCH  15  16
ATOM     16  CG  GLN A   2     -42.212  17.257  11.138  0.00  0.00    +0.087 C 
BRANCH  16  17
ATOM     17  CD  GLN A   2     -41.470  17.549   9.855  0.00  0.00    +0.219 C 
ATOM     18  NE2 GLN A   2     -40.534  18.489   9.942  0.00  0.00    -0.329 N 
ATOM     19 HE21 GLN A   2     -40.346  18.953  10.854  0.00  0.00    +0.145 HD
ATOM     20 HE22 GLN A   2     -39.989  18.760   9.099  0.00  0.00    +0.145 HD
ATOM     21  OE1 GLN A   2     -41.742  16.953   8.783  0.00  0.00    -0.275 OA
ENDBRANCH  16  17
ENDBRANCH  15  16
ENDBRANCH  12  15
ENDBRANCH   2  12
TORSDOF 9
REMARK  Name = ../refined-set-2016/3d7k/3d7k_pocket.pdb
REMARK  268 active torsions:
REMARK  status: ('A' for Active; 'I' for Inactive)
REMARK    1  A    between atoms: _1  and  _3
REMARK    2  A    between atoms: _3  and  _4
REMARK    3  A    between atoms: _3  and  _6
REMARK    4  A    between atoms: _6  and  _7
REMARK    5  A    between atoms: _10  and  _12
REMARK    6  A    between atoms: _12  and  _13
REMARK    7  A    between atoms: _12  and  _15
REMARK    8  A    between atoms: _15  and  _16
REMARK    9  A    between atoms: _20  and  _21
REMARK   10  A    between atoms: _26  and  _28
REMARK   11  A    between atoms: _28  and  _29
REMARK   12  A    between atoms: _28  and  _31
REMARK   13  A    between atoms: _31  and  _32
REMARK   14  A    between atoms: _35  and  _37
REMARK   15  A    between atoms: _37  and  _38
REMARK   16  A    between atoms: _40  and  _42
REMARK   17  A    between atoms: _42  and  _43
REMARK   18  A    between atoms: _46  and  _48
REMARK   19  A    between atoms: _48  and  _49
REMARK   20  A    between atoms: _48  and  _51
REMARK   21  A    between atoms: _51  and  _52
REMARK   22  A    between atoms: _55  and  _57
REMARK   23  A    between atoms: _57  and  _58
REMARK   24  A    between atoms: _57  and  _60
REMARK   25  A    between atoms: _60  and  _61
REMARK   26  A    between atoms: _64  and  _66
REMARK   27  A    between atoms: _66  and  _67
REMARK   28  A    between atoms: _66  and  _69
REMARK   29  A    between atoms: _69  and  _70
REMARK   30  A    between atoms: _75  and  _76
REMARK   31  A    between atoms: _78  and  _80
REMARK   32  A    between atoms: _80  and  _81
REMARK   33  A    between atoms: _80  and  _83
REMARK   34  A    between atoms: _83  and  _84
REMARK   35  A    between atoms: _87  and  _89
REMARK   36  A    between atoms: _89  and  _90
REMARK   37  A    between atoms: _89  and  _92
REMARK   38  A    between atoms: _92  and  _93
REMARK   39  A    between atoms: _103  and  _105
REMARK   40  A    between atoms: _105  and  _106
REMARK   41  A    between atoms: _105  and  _108
REMARK   42  A    between atoms: _108  and  _109
REMARK   43  A    between atoms: _112  and  _114
REMARK   44  A    between atoms: _114  and  _115
REMARK   45  A    between atoms: _114  and  _117
REMARK   46  A    between atoms: _117  and  _118
REMARK   47  A    between atoms: _123  and  _125
REMARK   48  A    between atoms: _125  and  _126
REMARK   49  A    between atoms: _128  and  _130
REMARK   50  A    between atoms: _130  and  _131
REMARK   51  A    between atoms: _130  and  _133
REMARK   52  A    between atoms: _133  and  _134
REMARK   53  A    between atoms: _139  and  _140
REMARK   54  A    between atoms: _142  and  _144
REMARK   55  A    between atoms: _144  and  _145
REMARK   56  A    between atoms: _144  and  _147
REMARK   57  A    between atoms: _147  and  _148
REMARK   58  A    between atoms: _151  and  _153
REMARK   59  A    between atoms: _153  and  _154
REMARK   60  A    between atoms: _156  and  _158
REMARK   61  A    between atoms: _158  and  _159
REMARK   62  A    between atoms: _158  and  _161
REMARK   63  A    between atoms: _161  and  _162
REMARK   64  A    between atoms: _164  and  _166
REMARK   65  A    between atoms: _166  and  _167
REMARK   66  A    between atoms: _166  and  _169
REMARK   67  A    between atoms: _169  and  _170
REMARK   68  A    between atoms: _170  and  _171
REMARK   69  A    between atoms: _173  and  _175
REMARK   70  A    between atoms: _175  and  _176
REMARK   71  A    between atoms: _178  and  _180
REMARK   72  A    between atoms: _180  and  _181
REMARK   73  A    between atoms: _180  and  _183
REMARK   74  A    between atoms: _186  and  _188
REMARK   75  A    between atoms: _188  and  _189
REMARK   76  A    between atoms: _188  and  _191
REMARK   77  A    between atoms: _191  and  _192
REMARK   78  A    between atoms: _195  and  _197
REMARK   79  A    between atoms: _197  and  _198
REMARK   80  A    between atoms: _200  and  _202
REMARK   81  A    between atoms: _202  and  _203
REMARK   82  A    between atoms: _202  and  _205
REMARK   83  A    between atoms: _205  and  _206
REMARK   84  A    between atoms: _206  and  _207
REMARK   85  A    between atoms: _207  and  CA_676
REMARK   86  A    between atoms: _209  and  _211
REMARK   87  A    between atoms: _211  and  _212
REMARK   88  A    between atoms: _214  and  _216
REMARK   89  A    between atoms: _216  and  _217
REMARK   90  A    between atoms: _216  and  _219
REMARK   91  A    between atoms: _219  and  _220
REMARK   92  A    between atoms: _222  and  _224
REMARK   93  A    between atoms: _224  and  _225
REMARK   94  A    between atoms: _224  and  _227
REMARK   95  A    between atoms: _230  and  _232
REMARK   96  A    between atoms: _232  and  _233
REMARK   97  A    between atoms: _235  and  _237
REMARK   98  A    between atoms: _237  and  _238
REMARK   99  A    between atoms: _237  and  _240
REMARK  100  A    between atoms: _240  and  _241
REMARK  101  A    between atoms: _246  and  _247
REMARK  102  A    between atoms: _249  and  _251
REMARK  103  A    between atoms: _251  and  _252
REMARK  104  A    between atoms: _251  and  _254
REMARK  105  A    between atoms: _254  and  _255
REMARK  106  A    between atoms: _258  and  _260
REMARK  107  A    between atoms: _260  and  _261
REMARK  108  A    between atoms: _260  and  _263
REMARK  109  A    between atoms: _263  and  _264
REMARK  110  A    between atoms: _264  and  _265
REMARK  111  A    between atoms: _267  and  _269
REMARK  112  A    between atoms: _269  and  _270
REMARK  113  A    between atoms: _269  and  _272
REMARK  114  A    between atoms: _272  and  _273
REMARK  115  A    between atoms: _278  and  _280
REMARK  116  A    between atoms: _280  and  _281
REMARK  117  A    between atoms: _280  and  _283
REMARK  118  A    between atoms: _283  and  _284
REMARK  119  A    between atoms: _289  and  _291
REMARK  120  A    between atoms: _291  and  _292
REMARK  121  A    between atoms: _291  and  _294
REMARK  122  A    between atoms: _294  and  _295
REMARK  123  A    between atoms: _295  and  _296
REMARK  124  A    between atoms: _301  and  _303
REMARK  125  A    between atoms: _303  and  _304
REMARK  126  A    between atoms: _303  and  _306
REMARK  127  A    between atoms: _306  and  _307
REMARK  128  A    between atoms: _309  and  _311
REMARK  129  A    between atoms: _311  and  _312
REMARK  130  A    between atoms: _311  and  _314
REMARK  131  A    between atoms: _314  and  _315
REMARK  132  A    between atoms: _325  and  _327
REMARK  133  A    between atoms: _327  and  _328
REMARK  134  A    between atoms: _330  and  _332
REMARK  135  A    between atoms: _332  and  _333
REMARK  136  A    between atoms: _336  and  _338
REMARK  137  A    between atoms: _338  and  _339
REMARK  138  A    between atoms: _338  and  _341
REMARK  139  A    between atoms: _341  and  _342
REMARK  140  A    between atoms: _345  and  _347
REMARK  141  A    between atoms: _347  and  _348
REMARK  142  A    between atoms: _347  and  _350
REMARK  143  A    between atoms: _350  and  _351
REMARK  144  A    between atoms: _354  and  _356
REMARK  145  A    between atoms: _356  and  _357
REMARK  146  A    between atoms: _356  and  _359
REMARK  147  A    between atoms: _359  and  _360
REMARK  148  A    between atoms: _365  and  _367
REMARK  149  A    between atoms: _367  and  _368
REMARK  150  A    between atoms: _367  and  _370
REMARK  151  A    between atoms: _370  and  _371
REMARK  152  A    between atoms: _377  and  _379
REMARK  153  A    between atoms: _379  and  _380
REMARK  154  A    between atoms: _379  and  _382
REMARK  155  A    between atoms: _382  and  _383
REMARK  156  A    between atoms: _383  and  _384
REMARK  157  A    between atoms: _389  and  _391
REMARK  158  A    between atoms: _391  and  _392
REMARK  159  A    between atoms: _394  and  _396
REMARK  160  A    between atoms: _396  and  _397
REMARK  161  A    between atoms: _396  and  _399
REMARK  162  A    between atoms: _399  and  _400
REMARK  163  A    between atoms: _403  and  _405
REMARK  164  A    between atoms: _405  and  _406
REMARK  165  A    between atoms: _405  and  _408
REMARK  166  A    between atoms: _408  and  _409
REMARK  167  A    between atoms: _412  and  _414
REMARK  168  A    between atoms: _414  and  _415
REMARK  169  A    between atoms: _414  and  _417
REMARK  170  A    between atoms: _417  and  _418
REMARK  171  A    between atoms: _423  and  _424
REMARK  172  A    between atoms: _426  and  _428
REMARK  173  A    between atoms: _428  and  _429
REMARK  174  A    between atoms: _428  and  _431
REMARK  175  A    between atoms: _434  and  _436
REMARK  176  A    between atoms: _436  and  _437
REMARK  177  A    between atoms: _440  and  _442
REMARK  178  A    between atoms: _442  and  _443
REMARK  179  A    between atoms: _442  and  _445
REMARK  180  A    between atoms: _445  and  _446
REMARK  181  A    between atoms: _449  and  _451
REMARK  182  A    between atoms: _451  and  _452
REMARK  183  A    between atoms: _451  and  _454
REMARK  184  A    between atoms: _454  and  _455
REMARK  185  A    between atoms: _455  and  _456
REMARK  186  A    between atoms: _459  and  _461
REMARK  187  A    between atoms: _461  and  _462
REMARK  188  A    between atoms: _461  and  _464
REMARK  189  A    between atoms: _464  and  _465
REMARK  190  A    between atoms: _468  and  _470
REMARK  191  A    between atoms: _470  and  _471
REMARK  192  A    between atoms: _470  and  _473
REMARK  193  A    between atoms: _473  and  _474
REMARK  194  A    between atoms: _479  and  _481
REMARK  195  A    between atoms: _481  and  _482
REMARK  196  A    between atoms: _484  and  _486
REMARK  197  A    between atoms: _486  and  _487
REMARK  198  A    between atoms: _490  and  _492
REMARK  199  A    between atoms: _492  and  _493
REMARK  200  A    between atoms: _492  and  _495
REMARK  201  A    between atoms: _495  and  _496
REMARK  202  A    between atoms: _501  and  _503
REMARK  203  A    between atoms: _503  and  _504
REMARK  204  A    between atoms: _503  and  _506
REMARK  205  A    between atoms: _506  and  _507
REMARK  206  A    between atoms: _510  and  _512
REMARK  207  A    between atoms: _512  and  _513
REMARK  208  A    between atoms: _512  and  _515
REMARK  209  A    between atoms: _515  and  _516
REMARK  210  A    between atoms: _519  and  _521
REMARK  211  A    between atoms: _521  and  _522
REMARK  212  A    between atoms: _521  and  _524
REMARK  213  A    between atoms: _524  and  _525
REMARK  214  A    between atoms: _525  and  _526
REMARK  215  A    between atoms: _526  and  _527
REMARK  216  A    between atoms: _536  and  _538
REMARK  217  A    between atoms: _538  and  _539
REMARK  218  A    between atoms: _538  and  _541
REMARK  219  A    between atoms: _541  and  _542
REMARK  220  A    between atoms: _547  and  _549
REMARK  221  A    between atoms: _549  and  _550
REMARK  222  A    between atoms: _549  and  _552
REMARK  223  A    between atoms: _552  and  _553
REMARK  224  A    between atoms: _553  and  _554
REMARK  225  A    between atoms: _557  and  _559
REMARK  226  A    between atoms: _559  and  _560
REMARK  227  A    between atoms: _563  and  _565
REMARK  228  A    between atoms: _565  and  _566
REMARK  229  A    between atoms: _565  and  _568
REMARK  230  A    between atoms: _571  and  _573
REMARK  231  A    between atoms: _573  and  _574
REMARK  232  A    between atoms: _573  and  _576
REMARK  233  A    between atoms: _576  and  _577
REMARK  234  A    between atoms: _580  and  _582
REMARK  235  A    between atoms: _582  and  _583
REMARK  236  A    between atoms: _586  and  _588
REMARK  237  A    between atoms: _588  and  _589
REMARK  238  A    between atoms: _591  and  _593
REMARK  239  A    between atoms: _593  and  _594
REMARK  240  A    between atoms: _596  and  _598
REMARK  241  A    between atoms: _598  and  _599
REMARK  242  A    between atoms: _601  and  _603
REMARK  243  A    between atoms: _603  and  _604
REMARK  244  A    between atoms: _603  and  _606
REMARK  245  A    between atoms: _606  and  _607
REMARK  246  A    between atoms: _613  and  _615
REMARK  247  A    between atoms: _615  and  _616
REMARK  248  A    between atoms: _615  and  _618
REMARK  249  A    between atoms: _618  and  _619
REMARK  250  A    between atoms: _622  and  _624
REMARK  251  A    between atoms: _624  and  _625
REMARK  252  A    between atoms: _624  and  _627
REMARK  253  A    between atoms: _627  and  _628
REMARK  254  A    between atoms: _633  and  _635
REMARK  255  A    between atoms: _635  and  _636
REMARK  256  A    between atoms: _639  and  _641
REMARK  257  A    between atoms: _641  and  _642
REMARK  258  A    between atoms: _641  and  _644
REMARK  259  A    between atoms: _644  and  _645
REMARK  260  A    between atoms: _648  and  _650
REMARK  261  A    between atoms: _650  and  _651
REMARK  262  A    between atoms: _650  and  _653
REMARK  263  A    between atoms: _653  and  _654
REMARK  264  A    between atoms: _654  and  _655
REMARK  265  A    between atoms: _660  and  _662
REMARK  266  A    between atoms: _662  and  _663
REMARK  267  A    between atoms: _662  and  _665
REMARK  268  A    between atoms: _665  and  _666
REMARK                            x       y       z     vdW  Elec       q    Type
REMARK                         _______ _______ _______ _____ _____    ______ ____
ROOT
ATOM      1  CG  TRP A   1     -34.153  11.681   9.478  0.00  0.00    +0.000 A 
ATOM      2  CD2 TRP A   1     -33.932  13.045   9.850  0.00  0.00    +0.000 A 
ATOM      3  CE3 TRP A   1     -34.225  13.802  10.999  0.00  0.00    +0.000 A 
ATOM      4  CZ3 TRP A   1     -33.847  15.147  11.036  0.00  0.00    +0.000 A 
ATOM      5  CH2 TRP A   1     -33.167  15.736   9.951  0.00  0.00    +0.000 A 
ATOM      6  CZ2 TRP A   1     -32.856  15.017   8.821  0.00  0.00    +0.000 A 
ATOM      7  CE2 TRP A   1     -33.257  13.672   8.772  0.00  0.00    +0.000 A 
ATOM      8  NE1 TRP A   1     -33.080  12.735   7.784  0.00  0.00    +0.000 N 
ATOM      9  HE1 TRP A   1     -32.610  12.901   6.871  0.00  0.00    +0.000 HD
ATOM     10  CD1 TRP A   1     -33.626  11.540   8.197  0.00  0.00    +0.000 A 
ENDROOT
BRANCH   1  11
ATOM     11  CB  TRP A   1     -34.852  10.638  10.280  0.00  0.00    +0.000 C 
BRANCH  11  12
ATOM     12  CA  TRP A   1     -34.751   9.241   9.631  0.00  0.00    +0.000 C 
BRANCH  12  13
ATOM     13  N   TRP A   1     -35.879   8.401  10.059  0.00  0.00    +0.000 NA
ATOM     14  H   TRP A   1     -36.554   8.782  10.753  0.00  0.00    +0.000 HD
ENDBRANCH  12  13
BRANCH  12  15
ATOM     15  C   TRP A   1     -33.346   8.607   9.809  0.00  0.00    +0.000 C 
ATOM     16  O   TRP A   1     -32.532   8.675   8.901  0.00  0.00    +0.000 OA
ENDBRANCH  12  15
ENDBRANCH  11  12
ENDBRANCH   1  11
TORSDOF 4
REMARK  Name = ../refined-set-2016/3d7k/3d7k_pocket.pdb
REMARK  268 active torsions:
REMARK  status: ('A' for Active; 'I' for Inactive)
REMARK    1  A    between atoms: _1  and  _3
REMARK    2  A    between atoms: _3  and  _4
REMARK    3  A    between atoms: _3  and  _6
REMARK    4  A    between atoms: _6  and  _7
REMARK    5  A    between atoms: _10  and  _12
REMARK    6  A    between atoms: _12  and  _13
REMARK    7  A    between atoms: _12  and  _15
REMARK    8  A    between atoms: _15  and  _16
REMARK    9  A    between atoms: _20  and  _21
REMARK   10  A    between atoms: _26  and  _28
REMARK   11  A    between atoms: _28  and  _29
REMARK   12  A    between atoms: _28  and  _31
REMARK   13  A    between atoms: _31  and  _32
REMARK   14  A    between atoms: _35  and  _37
REMARK   15  A    between atoms: _37  and  _38
REMARK   16  A    between atoms: _40  and  _42
REMARK   17  A    between atoms: _42  and  _43
REMARK   18  A    between atoms: _46  and  _48
REMARK   19  A    between atoms: _48  and  _49
REMARK   20  A    between atoms: _48  and  _51
REMARK   21  A    between atoms: _51  and  _52
REMARK   22  A    between atoms: _55  and  _57
REMARK   23  A    between atoms: _57  and  _58
REMARK   24  A    between atoms: _57  and  _60
REMARK   25  A    between atoms: _60  and  _61
REMARK   26  A    between atoms: _64  and  _66
REMARK   27  A    between atoms: _66  and  _67
REMARK   28  A    between atoms: _66  and  _69
REMARK   29  A    between atoms: _69  and  _70
REMARK   30  A    between atoms: _75  and  _76
REMARK   31  A    between atoms: _78  and  _80
REMARK   32  A    between atoms: _80  and  _81
REMARK   33  A    between atoms: _80  and  _83
REMARK   34  A    between atoms: _83  and  _84
REMARK   35  A    between atoms: _87  and  _89
REMARK   36  A    between atoms: _89  and  _90
REMARK   37  A    between atoms: _89  and  _92
REMARK   38  A    between atoms: _92  and  _93
REMARK   39  A    between atoms: _103  and  _105
REMARK   40  A    between atoms: _105  and  _106
REMARK   41  A    between atoms: _105  and  _108
REMARK   42  A    between atoms: _108  and  _109
REMARK   43  A    between atoms: _112  and  _114
REMARK   44  A    between atoms: _114  and  _115
REMARK   45  A    between atoms: _114  and  _117
REMARK   46  A    between atoms: _117  and  _118
REMARK   47  A    between atoms: _123  and  _125
REMARK   48  A    between atoms: _125  and  _126
REMARK   49  A    between atoms: _128  and  _130
REMARK   50  A    between atoms: _130  and  _131
REMARK   51  A    between atoms: _130  and  _133
REMARK   52  A    between atoms: _133  and  _134
REMARK   53  A    between atoms: _139  and  _140
REMARK   54  A    between atoms: _142  and  _144
REMARK   55  A    between atoms: _144  and  _145
REMARK   56  A    between atoms: _144  and  _147
REMARK   57  A    between atoms: _147  and  _148
REMARK   58  A    between atoms: _151  and  _153
REMARK   59  A    between atoms: _153  and  _154
REMARK   60  A    between atoms: _156  and  _158
REMARK   61  A    between atoms: _158  and  _159
REMARK   62  A    between atoms: _158  and  _161
REMARK   63  A    between atoms: _161  and  _162
REMARK   64  A    between atoms: _164  and  _166
REMARK   65  A    between atoms: _166  and  _167
REMARK   66  A    between atoms: _166  and  _169
REMARK   67  A    between atoms: _169  and  _170
REMARK   68  A    between atoms: _170  and  _171
REMARK   69  A    between atoms: _173  and  _175
REMARK   70  A    between atoms: _175  and  _176
REMARK   71  A    between atoms: _178  and  _180
REMARK   72  A    between atoms: _180  and  _181
REMARK   73  A    between atoms: _180  and  _183
REMARK   74  A    between atoms: _186  and  _188
REMARK   75  A    between atoms: _188  and  _189
REMARK   76  A    between atoms: _188  and  _191
REMARK   77  A    between atoms: _191  and  _192
REMARK   78  A    between atoms: _195  and  _197
REMARK   79  A    between atoms: _197  and  _198
REMARK   80  A    between atoms: _200  and  _202
REMARK   81  A    between atoms: _202  and  _203
REMARK   82  A    between atoms: _202  and  _205
REMARK   83  A    between atoms: _205  and  _206
REMARK   84  A    between atoms: _206  and  _207
REMARK   85  A    between atoms: _207  and  CA_676
REMARK   86  A    between atoms: _209  and  _211
REMARK   87  A    between atoms: _211  and  _212
REMARK   88  A    between atoms: _214  and  _216
REMARK   89  A    between atoms: _216  and  _217
REMARK   90  A    between atoms: _216  and  _219
REMARK   91  A    between atoms: _219  and  _220
REMARK   92  A    between atoms: _222  and  _224
REMARK   93  A    between atoms: _224  and  _225
REMARK   94  A    between atoms: _224  and  _227
REMARK   95  A    between atoms: _230  and  _232
REMARK   96  A    between atoms: _232  and  _233
REMARK   97  A    between atoms: _235  and  _237
REMARK   98  A    between atoms: _237  and  _238
REMARK   99  A    between atoms: _237  and  _240
REMARK  100  A    between atoms: _240  and  _241
REMARK  101  A    between atoms: _246  and  _247
REMARK  102  A    between atoms: _249  and  _251
REMARK  103  A    between atoms: _251  and  _252
REMARK  104  A    between atoms: _251  and  _254
REMARK  105  A    between atoms: _254  and  _255
REMARK  106  A    between atoms: _258  and  _260
REMARK  107  A    between atoms: _260  and  _261
REMARK  108  A    between atoms: _260  and  _263
REMARK  109  A    between atoms: _263  and  _264
REMARK  110  A    between atoms: _264  and  _265
REMARK  111  A    between atoms: _267  and  _269
REMARK  112  A    between atoms: _269  and  _270
REMARK  113  A    between atoms: _269  and  _272
REMARK  114  A    between atoms: _272  and  _273
REMARK  115  A    between atoms: _278  and  _280
REMARK  116  A    between atoms: _280  and  _281
REMARK  117  A    between atoms: _280  and  _283
REMARK  118  A    between atoms: _283  and  _284
REMARK  119  A    between atoms: _289  and  _291
REMARK  120  A    between atoms: _291  and  _292
REMARK  121  A    between atoms: _291  and  _294
REMARK  122  A    between atoms: _294  and  _295
REMARK  123  A    between atoms: _295  and  _296
REMARK  124  A    between atoms: _301  and  _303
REMARK  125  A    between atoms: _303  and  _304
REMARK  126  A    between atoms: _303  and  _306
REMARK  127  A    between atoms: _306  and  _307
REMARK  128  A    between atoms: _309  and  _311
REMARK  129  A    between atoms: _311  and  _312
REMARK  130  A    between atoms: _311  and  _314
REMARK  131  A    between atoms: _314  and  _315
REMARK  132  A    between atoms: _325  and  _327
REMARK  133  A    between atoms: _327  and  _328
REMARK  134  A    between atoms: _330  and  _332
REMARK  135  A    between atoms: _332  and  _333
REMARK  136  A    between atoms: _336  and  _338
REMARK  137  A    between atoms: _338  and  _339
REMARK  138  A    between atoms: _338  and  _341
REMARK  139  A    between atoms: _341  and  _342
REMARK  140  A    between atoms: _345  and  _347
REMARK  141  A    between atoms: _347  and  _348
REMARK  142  A    between atoms: _347  and  _350
REMARK  143  A    between atoms: _350  and  _351
REMARK  144  A    between atoms: _354  and  _356
REMARK  145  A    between atoms: _356  and  _357
REMARK  146  A    between atoms: _356  and  _359
REMARK  147  A    between atoms: _359  and  _360
REMARK  148  A    between atoms: _365  and  _367
REMARK  149  A    between atoms: _367  and  _368
REMARK  150  A    between atoms: _367  and  _370
REMARK  151  A    between atoms: _370  and  _371
REMARK  152  A    between atoms: _377  and  _379
REMARK  153  A    between atoms: _379  and  _380
REMARK  154  A    between atoms: _379  and  _382
REMARK  155  A    between atoms: _382  and  _383
REMARK  156  A    between atoms: _383  and  _384
REMARK  157  A    between atoms: _389  and  _391
REMARK  158  A    between atoms: _391  and  _392
REMARK  159  A    between atoms: _394  and  _396
REMARK  160  A    between atoms: _396  and  _397
REMARK  161  A    between atoms: _396  and  _399
REMARK  162  A    between atoms: _399  and  _400
REMARK  163  A    between atoms: _403  and  _405
REMARK  164  A    between atoms: _405  and  _406
REMARK  165  A    between atoms: _405  and  _408
REMARK  166  A    between atoms: _408  and  _409
REMARK  167  A    between atoms: _412  and  _414
REMARK  168  A    between atoms: _414  and  _415
REMARK  169  A    between atoms: _414  and  _417
REMARK  170  A    between atoms: _417  and  _418
REMARK  171  A    between atoms: _423  and  _424
REMARK  172  A    between atoms: _426  and  _428
REMARK  173  A    between atoms: _428  and  _429
REMARK  174  A    between atoms: _428  and  _431
REMARK  175  A    between atoms: _434  and  _436
REMARK  176  A    between atoms: _436  and  _437
REMARK  177  A    between atoms: _440  and  _442
REMARK  178  A    between atoms: _442  and  _443
REMARK  179  A    between atoms: _442  and  _445
REMARK  180  A    between atoms: _445  and  _446
REMARK  181  A    between atoms: _449  and  _451
REMARK  182  A    between atoms: _451  and  _452
REMARK  183  A    between atoms: _451  and  _454
REMARK  184  A    between atoms: _454  and  _455
REMARK  185  A    between atoms: _455  and  _456
REMARK  186  A    between atoms: _459  and  _461
REMARK  187  A    between atoms: _461  and  _462
REMARK  188  A    between atoms: _461  and  _464
REMARK  189  A    between atoms: _464  and  _465
REMARK  190  A    between atoms: _468  and  _470
REMARK  191  A    between atoms: _470  and  _471
REMARK  192  A    between atoms: _470  and  _473
REMARK  193  A    between atoms: _473  and  _474
REMARK  194  A    between atoms: _479  and  _481
REMARK  195  A    between atoms: _481  and  _482
REMARK  196  A    between atoms: _484  and  _486
REMARK  197  A    between atoms: _486  and  _487
REMARK  198  A    between atoms: _490  and  _492
REMARK  199  A    between atoms: _492  and  _493
REMARK  200  A    between atoms: _492  and  _495
REMARK  201  A    between atoms: _495  and  _496
REMARK  202  A    between atoms: _501  and  _503
REMARK  203  A    between atoms: _503  and  _504
REMARK  204  A    between atoms: _503  and  _506
REMARK  205  A    between atoms: _506  and  _507
REMARK  206  A    between atoms: _510  and  _512
REMARK  207  A    between atoms: _512  and  _513
REMARK  208  A    between atoms: _512  and  _515
REMARK  209  A    between atoms: _515  and  _516
REMARK  210  A    between atoms: _519  and  _521
REMARK  211  A    between atoms: _521  and  _522
REMARK  212  A    between atoms: _521  and  _524
REMARK  213  A    between atoms: _524  and  _525
REMARK  214  A    between atoms: _525  and  _526
REMARK  215  A    between atoms: _526  and  _527
REMARK  216  A    between atoms: _536  and  _538
REMARK  217  A    between atoms: _538  and  _539
REMARK  218  A    between atoms: _538  and  _541
REMARK  219  A    between atoms: _541  and  _542
REMARK  220  A    between atoms: _547  and  _549
REMARK  221  A    between atoms: _549  and  _550
REMARK  222  A    between atoms: _549  and  _552
REMARK  223  A    between atoms: _552  and  _553
REMARK  224  A    between atoms: _553  and  _554
REMARK  225  A    between atoms: _557  and  _559
REMARK  226  A    between atoms: _559  and  _560
REMARK  227  A    between atoms: _563  and  _565
REMARK  228  A    between atoms: _565  and  _566
REMARK  229  A    between atoms: _565  and  _568
REMARK  230  A    between atoms: _571  and  _573
REMARK  231  A    between atoms: _573  and  _574
REMARK  232  A    between atoms: _573  and  _576
REMARK  233  A    between atoms: _576  and  _577
REMARK  234  A    between atoms: _580  and  _582
REMARK  235  A    between atoms: _582  and  _583
REMARK  236  A    between atoms: _586  and  _588
REMARK  237  A    between atoms: _588  and  _589
REMARK  238  A    between atoms: _591  and  _593
REMARK  239  A    between atoms: _593  and  _594
REMARK  240  A    between atoms: _596  and  _598
REMARK  241  A    between atoms: _598  and  _599
REMARK  242  A    between atoms: _601  and  _603
REMARK  243  A    between atoms: _603  and  _604
REMARK  244  A    between atoms: _603  and  _606
REMARK  245  A    between atoms: _606  and  _607
REMARK  246  A    between atoms: _613  and  _615
REMARK  247  A    between atoms: _615  and  _616
REMARK  248  A    between atoms: _615  and  _618
REMARK  249  A    between atoms: _618  and  _619
REMARK  250  A    between atoms: _622  and  _624
REMARK  251  A    between atoms: _624  and  _625
REMARK  252  A    between atoms: _624  and  _627
REMARK  253  A    between atoms: _627  and  _628
REMARK  254  A    between atoms: _633  and  _635
REMARK  255  A    between atoms: _635  and  _636
REMARK  256  A    between atoms: _639  and  _641
REMARK  257  A    between atoms: _641  and  _642
REMARK  258  A    between atoms: _641  and  _644
REMARK  259  A    between atoms: _644  and  _645
REMARK  260  A    between atoms: _648  and  _650
REMARK  261  A    between atoms: _650  and  _651
REMARK  262  A    between atoms: _650  and  _653
REMARK  263  A    between atoms: _653  and  _654
REMARK  264  A    between atoms: _654  and  _655
REMARK  265  A    between atoms: _660  and  _662
REMARK  266  A    between atoms: _662  and  _663
REMARK  267  A    between atoms: _662  and  _665
REMARK  268  A    between atoms: _665  and  _666
REMARK                            x       y       z     vdW  Elec       q    Type
REMARK                         _______ _______ _______ _____ _____    ______ ____
ROOT
ATOM      1  O   HOH     1     -45.069  17.902   9.364  0.00  0.00    +0.000 OA
ENDROOT
TORSDOF 0
REMARK  Name = ../refined-set-2016/3d7k/3d7k_pocket.pdb
REMARK  268 active torsions:
REMARK  status: ('A' for Active; 'I' for Inactive)
REMARK    1  A    between atoms: _1  and  _3
REMARK    2  A    between atoms: _3  and  _4
REMARK    3  A    between atoms: _3  and  _6
REMARK    4  A    between atoms: _6  and  _7
REMARK    5  A    between atoms: _10  and  _12
REMARK    6  A    between atoms: _12  and  _13
REMARK    7  A    between atoms: _12  and  _15
REMARK    8  A    between atoms: _15  and  _16
REMARK    9  A    between atoms: _20  and  _21
REMARK   10  A    between atoms: _26  and  _28
REMARK   11  A    between atoms: _28  and  _29
REMARK   12  A    between atoms: _28  and  _31
REMARK   13  A    between atoms: _31  and  _32
REMARK   14  A    between atoms: _35  and  _37
REMARK   15  A    between atoms: _37  and  _38
REMARK   16  A    between atoms: _40  and  _42
REMARK   17  A    between atoms: _42  and  _43
REMARK   18  A    between atoms: _46  and  _48
REMARK   19  A    between atoms: _48  and  _49
REMARK   20  A    between atoms: _48  and  _51
REMARK   21  A    between atoms: _51  and  _52
REMARK   22  A    between atoms: _55  and  _57
REMARK   23  A    between atoms: _57  and  _58
REMARK   24  A    between atoms: _57  and  _60
REMARK   25  A    between atoms: _60  and  _61
REMARK   26  A    between atoms: _64  and  _66
REMARK   27  A    between atoms: _66  and  _67
REMARK   28  A    between atoms: _66  and  _69
REMARK   29  A    between atoms: _69  and  _70
REMARK   30  A    between atoms: _75  and  _76
REMARK   31  A    between atoms: _78  and  _80
REMARK   32  A    between atoms: _80  and  _81
REMARK   33  A    between atoms: _80  and  _83
REMARK   34  A    between atoms: _83  and  _84
REMARK   35  A    between atoms: _87  and  _89
REMARK   36  A    between atoms: _89  and  _90
REMARK   37  A    between atoms: _89  and  _92
REMARK   38  A    between atoms: _92  and  _93
REMARK   39  A    between atoms: _103  and  _105
REMARK   40  A    between atoms: _105  and  _106
REMARK   41  A    between atoms: _105  and  _108
REMARK   42  A    between atoms: _108  and  _109
REMARK   43  A    between atoms: _112  and  _114
REMARK   44  A    between atoms: _114  and  _115
REMARK   45  A    between atoms: _114  and  _117
REMARK   46  A    between atoms: _117  and  _118
REMARK   47  A    between atoms: _123  and  _125
REMARK   48  A    between atoms: _125  and  _126
REMARK   49  A    between atoms: _128  and  _130
REMARK   50  A    between atoms: _130  and  _131
REMARK   51  A    between atoms: _130  and  _133
REMARK   52  A    between atoms: _133  and  _134
REMARK   53  A    between atoms: _139  and  _140
REMARK   54  A    between atoms: _142  and  _144
REMARK   55  A    between atoms: _144  and  _145
REMARK   56  A    between atoms: _144  and  _147
REMARK   57  A    between atoms: _147  and  _148
REMARK   58  A    between atoms: _151  and  _153
REMARK   59  A    between atoms: _153  and  _154
REMARK   60  A    between atoms: _156  and  _158
REMARK   61  A    between atoms: _158  and  _159
REMARK   62  A    between atoms: _158  and  _161
REMARK   63  A    between atoms: _161  and  _162
REMARK   64  A    between atoms: _164  and  _166
REMARK   65  A    between atoms: _166  and  _167
REMARK   66  A    between atoms: _166  and  _169
REMARK   67  A    between atoms: _169  and  _170
REMARK   68  A    between atoms: _170  and  _171
REMARK   69  A    between atoms: _173  and  _175
REMARK   70  A    between atoms: _175  and  _176
REMARK   71  A    between atoms: _178  and  _180
REMARK   72  A    between atoms: _180  and  _181
REMARK   73  A    between atoms: _180  and  _183
REMARK   74  A    between atoms: _186  and  _188
REMARK   75  A    between atoms: _188  and  _189
REMARK   76  A    between atoms: _188  and  _191
REMARK   77  A    between atoms: _191  and  _192
REMARK   78  A    between atoms: _195  and  _197
REMARK   79  A    between atoms: _197  and  _198
REMARK   80  A    between atoms: _200  and  _202
REMARK   81  A    between atoms: _202  and  _203
REMARK   82  A    between atoms: _202  and  _205
REMARK   83  A    between atoms: _205  and  _206
REMARK   84  A    between atoms: _206  and  _207
REMARK   85  A    between atoms: _207  and  CA_676
REMARK   86  A    between atoms: _209  and  _211
REMARK   87  A    between atoms: _211  and  _212
REMARK   88  A    between atoms: _214  and  _216
REMARK   89  A    between atoms: _216  and  _217
REMARK   90  A    between atoms: _216  and  _219
REMARK   91  A    between atoms: _219  and  _220
REMARK   92  A    between atoms: _222  and  _224
REMARK   93  A    between atoms: _224  and  _225
REMARK   94  A    between atoms: _224  and  _227
REMARK   95  A    between atoms: _230  and  _232
REMARK   96  A    between atoms: _232  and  _233
REMARK   97  A    between atoms: _235  and  _237
REMARK   98  A    between atoms: _237  and  _238
REMARK   99  A    between atoms: _237  and  _240
REMARK  100  A    between atoms: _240  and  _241
REMARK  101  A    between atoms: _246  and  _247
REMARK  102  A    between atoms: _249  and  _251
REMARK  103  A    between atoms: _251  and  _252
REMARK  104  A    between atoms: _251  and  _254
REMARK  105  A    between atoms: _254  and  _255
REMARK  106  A    between atoms: _258  and  _260
REMARK  107  A    between atoms: _260  and  _261
REMARK  108  A    between atoms: _260  and  _263
REMARK  109  A    between atoms: _263  and  _264
REMARK  110  A    between atoms: _264  and  _265
REMARK  111  A    between atoms: _267  and  _269
REMARK  112  A    between atoms: _269  and  _270
REMARK  113  A    between atoms: _269  and  _272
REMARK  114  A    between atoms: _272  and  _273
REMARK  115  A    between atoms: _278  and  _280
REMARK  116  A    between atoms: _280  and  _281
REMARK  117  A    between atoms: _280  and  _283
REMARK  118  A    between atoms: _283  and  _284
REMARK  119  A    between atoms: _289  and  _291
REMARK  120  A    between atoms: _291  and  _292
REMARK  121  A    between atoms: _291  and  _294
REMARK  122  A    between atoms: _294  and  _295
REMARK  123  A    between atoms: _295  and  _296
REMARK  124  A    between atoms: _301  and  _303
REMARK  125  A    between atoms: _303  and  _304
REMARK  126  A    between atoms: _303  and  _306
REMARK  127  A    between atoms: _306  and  _307
REMARK  128  A    between atoms: _309  and  _311
REMARK  129  A    between atoms: _311  and  _312
REMARK  130  A    between atoms: _311  and  _314
REMARK  131  A    between atoms: _314  and  _315
REMARK  132  A    between atoms: _325  and  _327
REMARK  133  A    between atoms: _327  and  _328
REMARK  134  A    between atoms: _330  and  _332
REMARK  135  A    between atoms: _332  and  _333
REMARK  136  A    between atoms: _336  and  _338
REMARK  137  A    between atoms: _338  and  _339
REMARK  138  A    between atoms: _338  and  _341
REMARK  139  A    between atoms: _341  and  _342
REMARK  140  A    between atoms: _345  and  _347
REMARK  141  A    between atoms: _347  and  _348
REMARK  142  A    between atoms: _347  and  _350
REMARK  143  A    between atoms: _350  and  _351
REMARK  144  A    between atoms: _354  and  _356
REMARK  145  A    between atoms: _356  and  _357
REMARK  146  A    between atoms: _356  and  _359
REMARK  147  A    between atoms: _359  and  _360
REMARK  148  A    between atoms: _365  and  _367
REMARK  149  A    between atoms: _367  and  _368
REMARK  150  A    between atoms: _367  and  _370
REMARK  151  A    between atoms: _370  and  _371
REMARK  152  A    between atoms: _377  and  _379
REMARK  153  A    between atoms: _379  and  _380
REMARK  154  A    between atoms: _379  and  _382
REMARK  155  A    between atoms: _382  and  _383
REMARK  156  A    between atoms: _383  and  _384
REMARK  157  A    between atoms: _389  and  _391
REMARK  158  A    between atoms: _391  and  _392
REMARK  159  A    between atoms: _394  and  _396
REMARK  160  A    between atoms: _396  and  _397
REMARK  161  A    between atoms: _396  and  _399
REMARK  162  A    between atoms: _399  and  _400
REMARK  163  A    between atoms: _403  and  _405
REMARK  164  A    between atoms: _405  and  _406
REMARK  165  A    between atoms: _405  and  _408
REMARK  166  A    between atoms: _408  and  _409
REMARK  167  A    between atoms: _412  and  _414
REMARK  168  A    between atoms: _414  and  _415
REMARK  169  A    between atoms: _414  and  _417
REMARK  170  A    between atoms: _417  and  _418
REMARK  171  A    between atoms: _423  and  _424
REMARK  172  A    between atoms: _426  and  _428
REMARK  173  A    between atoms: _428  and  _429
REMARK  174  A    between atoms: _428  and  _431
REMARK  175  A    between atoms: _434  and  _436
REMARK  176  A    between atoms: _436  and  _437
REMARK  177  A    between atoms: _440  and  _442
REMARK  178  A    between atoms: _442  and  _443
REMARK  179  A    between atoms: _442  and  _445
REMARK  180  A    between atoms: _445  and  _446
REMARK  181  A    between atoms: _449  and  _451
REMARK  182  A    between atoms: _451  and  _452
REMARK  183  A    between atoms: _451  and  _454
REMARK  184  A    between atoms: _454  and  _455
REMARK  185  A    between atoms: _455  and  _456
REMARK  186  A    between atoms: _459  and  _461
REMARK  187  A    between atoms: _461  and  _462
REMARK  188  A    between atoms: _461  and  _464
REMARK  189  A    between atoms: _464  and  _465
REMARK  190  A    between atoms: _468  and  _470
REMARK  191  A    between atoms: _470  and  _471
REMARK  192  A    between atoms: _470  and  _473
REMARK  193  A    between atoms: _473  and  _474
REMARK  194  A    between atoms: _479  and  _481
REMARK  195  A    between atoms: _481  and  _482
REMARK  196  A    between atoms: _484  and  _486
REMARK  197  A    between atoms: _486  and  _487
REMARK  198  A    between atoms: _490  and  _492
REMARK  199  A    between atoms: _492  and  _493
REMARK  200  A    between atoms: _492  and  _495
REMARK  201  A    between atoms: _495  and  _496
REMARK  202  A    between atoms: _501  and  _503
REMARK  203  A    between atoms: _503  and  _504
REMARK  204  A    between atoms: _503  and  _506
REMARK  205  A    between atoms: _506  and  _507
REMARK  206  A    between atoms: _510  and  _512
REMARK  207  A    between atoms: _512  and  _513
REMARK  208  A    between atoms: _512  and  _515
REMARK  209  A    between atoms: _515  and  _516
REMARK  210  A    between atoms: _519  and  _521
REMARK  211  A    between atoms: _521  and  _522
REMARK  212  A    between atoms: _521  and  _524
REMARK  213  A    between atoms: _524  and  _525
REMARK  214  A    between atoms: _525  and  _526
REMARK  215  A    between atoms: _526  and  _527
REMARK  216  A    between atoms: _536  and  _538
REMARK  217  A    between atoms: _538  and  _539
REMARK  218  A    between atoms: _538  and  _541
REMARK  219  A    between atoms: _541  and  _542
REMARK  220  A    between atoms: _547  and  _549
REMARK  221  A    between atoms: _549  and  _550
REMARK  222  A    between atoms: _549  and  _552
REMARK  223  A    between atoms: _552  and  _553
REMARK  224  A    between atoms: _553  and  _554
REMARK  225  A    between atoms: _557  and  _559
REMARK  226  A    between atoms: _559  and  _560
REMARK  227  A    between atoms: _563  and  _565
REMARK  228  A    between atoms: _565  and  _566
REMARK  229  A    between atoms: _565  and  _568
REMARK  230  A    between atoms: _571  and  _573
REMARK  231  A    between atoms: _573  and  _574
REMARK  232  A    between atoms: _573  and  _576
REMARK  233  A    between atoms: _576  and  _577
REMARK  234  A    between atoms: _580  and  _582
REMARK  235  A    between atoms: _582  and  _583
REMARK  236  A    between atoms: _586  and  _588
REMARK  237  A    between atoms: _588  and  _589
REMARK  238  A    between atoms: _591  and  _593
REMARK  239  A    between atoms: _593  and  _594
REMARK  240  A    between atoms: _596  and  _598
REMARK  241  A    between atoms: _598  and  _599
REMARK  242  A    between atoms: _601  and  _603
REMARK  243  A    between atoms: _603  and  _604
REMARK  244  A    between atoms: _603  and  _606
REMARK  245  A    between atoms: _606  and  _607
REMARK  246  A    between atoms: _613  and  _615
REMARK  247  A    between atoms: _615  and  _616
REMARK  248  A    between atoms: _615  and  _618
REMARK  249  A    between atoms: _618  and  _619
REMARK  250  A    between atoms: _622  and  _624
REMARK  251  A    between atoms: _624  and  _625
REMARK  252  A    between atoms: _624  and  _627
REMARK  253  A    between atoms: _627  and  _628
REMARK  254  A    between atoms: _633  and  _635
REMARK  255  A    between atoms: _635  and  _636
REMARK  256  A    between atoms: _639  and  _641
REMARK  257  A    between atoms: _641  and  _642
REMARK  258  A    between atoms: _641  and  _644
REMARK  259  A    between atoms: _644  and  _645
REMARK  260  A    between atoms: _648  and  _650
REMARK  261  A    between atoms: _650  and  _651
REMARK  262  A    between atoms: _650  and  _653
REMARK  263  A    between atoms: _653  and  _654
REMARK  264  A    between atoms: _654  and  _655
REMARK  265  A    between atoms: _660  and  _662
REMARK  266  A    between atoms: _662  and  _663
REMARK  267  A    between atoms: _662  and  _665
REMARK  268  A    between atoms: _665  and  _666
REMARK                            x       y       z     vdW  Elec       q    Type
REMARK                         _______ _______ _______ _____ _____    ______ ____
ROOT
ATOM      1  O   HOH     1     -48.174  24.530  -1.872  0.00  0.00    +0.000 OA
ENDROOT
TORSDOF 0
REMARK  Name = ../refined-set-2016/3d7k/3d7k_pocket.pdb
REMARK  268 active torsions:
REMARK  status: ('A' for Active; 'I' for Inactive)
REMARK    1  A    between atoms: _1  and  _3
REMARK    2  A    between atoms: _3  and  _4
REMARK    3  A    between atoms: _3  and  _6
REMARK    4  A    between atoms: _6  and  _7
REMARK    5  A    between atoms: _10  and  _12
REMARK    6  A    between atoms: _12  and  _13
REMARK    7  A    between atoms: _12  and  _15
REMARK    8  A    between atoms: _15  and  _16
REMARK    9  A    between atoms: _20  and  _21
REMARK   10  A    between atoms: _26  and  _28
REMARK   11  A    between atoms: _28  and  _29
REMARK   12  A    between atoms: _28  and  _31
REMARK   13  A    between atoms: _31  and  _32
REMARK   14  A    between atoms: _35  and  _37
REMARK   15  A    between atoms: _37  and  _38
REMARK   16  A    between atoms: _40  and  _42
REMARK   17  A    between atoms: _42  and  _43
REMARK   18  A    between atoms: _46  and  _48
REMARK   19  A    between atoms: _48  and  _49
REMARK   20  A    between atoms: _48  and  _51
REMARK   21  A    between atoms: _51  and  _52
REMARK   22  A    between atoms: _55  and  _57
REMARK   23  A    between atoms: _57  and  _58
REMARK   24  A    between atoms: _57  and  _60
REMARK   25  A    between atoms: _60  and  _61
REMARK   26  A    between atoms: _64  and  _66
REMARK   27  A    between atoms: _66  and  _67
REMARK   28  A    between atoms: _66  and  _69
REMARK   29  A    between atoms: _69  and  _70
REMARK   30  A    between atoms: _75  and  _76
REMARK   31  A    between atoms: _78  and  _80
REMARK   32  A    between atoms: _80  and  _81
REMARK   33  A    between atoms: _80  and  _83
REMARK   34  A    between atoms: _83  and  _84
REMARK   35  A    between atoms: _87  and  _89
REMARK   36  A    between atoms: _89  and  _90
REMARK   37  A    between atoms: _89  and  _92
REMARK   38  A    between atoms: _92  and  _93
REMARK   39  A    between atoms: _103  and  _105
REMARK   40  A    between atoms: _105  and  _106
REMARK   41  A    between atoms: _105  and  _108
REMARK   42  A    between atoms: _108  and  _109
REMARK   43  A    between atoms: _112  and  _114
REMARK   44  A    between atoms: _114  and  _115
REMARK   45  A    between atoms: _114  and  _117
REMARK   46  A    between atoms: _117  and  _118
REMARK   47  A    between atoms: _123  and  _125
REMARK   48  A    between atoms: _125  and  _126
REMARK   49  A    between atoms: _128  and  _130
REMARK   50  A    between atoms: _130  and  _131
REMARK   51  A    between atoms: _130  and  _133
REMARK   52  A    between atoms: _133  and  _134
REMARK   53  A    between atoms: _139  and  _140
REMARK   54  A    between atoms: _142  and  _144
REMARK   55  A    between atoms: _144  and  _145
REMARK   56  A    between atoms: _144  and  _147
REMARK   57  A    between atoms: _147  and  _148
REMARK   58  A    between atoms: _151  and  _153
REMARK   59  A    between atoms: _153  and  _154
REMARK   60  A    between atoms: _156  and  _158
REMARK   61  A    between atoms: _158  and  _159
REMARK   62  A    between atoms: _158  and  _161
REMARK   63  A    between atoms: _161  and  _162
REMARK   64  A    between atoms: _164  and  _166
REMARK   65  A    between atoms: _166  and  _167
REMARK   66  A    between atoms: _166  and  _169
REMARK   67  A    between atoms: _169  and  _170
REMARK   68  A    between atoms: _170  and  _171
REMARK   69  A    between atoms: _173  and  _175
REMARK   70  A    between atoms: _175  and  _176
REMARK   71  A    between atoms: _178  and  _180
REMARK   72  A    between atoms: _180  and  _181
REMARK   73  A    between atoms: _180  and  _183
REMARK   74  A    between atoms: _186  and  _188
REMARK   75  A    between atoms: _188  and  _189
REMARK   76  A    between atoms: _188  and  _191
REMARK   77  A    between atoms: _191  and  _192
REMARK   78  A    between atoms: _195  and  _197
REMARK   79  A    between atoms: _197  and  _198
REMARK   80  A    between atoms: _200  and  _202
REMARK   81  A    between atoms: _202  and  _203
REMARK   82  A    between atoms: _202  and  _205
REMARK   83  A    between atoms: _205  and  _206
REMARK   84  A    between atoms: _206  and  _207
REMARK   85  A    between atoms: _207  and  CA_676
REMARK   86  A    between atoms: _209  and  _211
REMARK   87  A    between atoms: _211  and  _212
REMARK   88  A    between atoms: _214  and  _216
REMARK   89  A    between atoms: _216  and  _217
REMARK   90  A    between atoms: _216  and  _219
REMARK   91  A    between atoms: _219  and  _220
REMARK   92  A    between atoms: _222  and  _224
REMARK   93  A    between atoms: _224  and  _225
REMARK   94  A    between atoms: _224  and  _227
REMARK   95  A    between atoms: _230  and  _232
REMARK   96  A    between atoms: _232  and  _233
REMARK   97  A    between atoms: _235  and  _237
REMARK   98  A    between atoms: _237  and  _238
REMARK   99  A    between atoms: _237  and  _240
REMARK  100  A    between atoms: _240  and  _241
REMARK  101  A    between atoms: _246  and  _247
REMARK  102  A    between atoms: _249  and  _251
REMARK  103  A    between atoms: _251  and  _252
REMARK  104  A    between atoms: _251  and  _254
REMARK  105  A    between atoms: _254  and  _255
REMARK  106  A    between atoms: _258  and  _260
REMARK  107  A    between atoms: _260  and  _261
REMARK  108  A    between atoms: _260  and  _263
REMARK  109  A    between atoms: _263  and  _264
REMARK  110  A    between atoms: _264  and  _265
REMARK  111  A    between atoms: _267  and  _269
REMARK  112  A    between atoms: _269  and  _270
REMARK  113  A    between atoms: _269  and  _272
REMARK  114  A    between atoms: _272  and  _273
REMARK  115  A    between atoms: _278  and  _280
REMARK  116  A    between atoms: _280  and  _281
REMARK  117  A    between atoms: _280  and  _283
REMARK  118  A    between atoms: _283  and  _284
REMARK  119  A    between atoms: _289  and  _291
REMARK  120  A    between atoms: _291  and  _292
REMARK  121  A    between atoms: _291  and  _294
REMARK  122  A    between atoms: _294  and  _295
REMARK  123  A    between atoms: _295  and  _296
REMARK  124  A    between atoms: _301  and  _303
REMARK  125  A    between atoms: _303  and  _304
REMARK  126  A    between atoms: _303  and  _306
REMARK  127  A    between atoms: _306  and  _307
REMARK  128  A    between atoms: _309  and  _311
REMARK  129  A    between atoms: _311  and  _312
REMARK  130  A    between atoms: _311  and  _314
REMARK  131  A    between atoms: _314  and  _315
REMARK  132  A    between atoms: _325  and  _327
REMARK  133  A    between atoms: _327  and  _328
REMARK  134  A    between atoms: _330  and  _332
REMARK  135  A    between atoms: _332  and  _333
REMARK  136  A    between atoms: _336  and  _338
REMARK  137  A    between atoms: _338  and  _339
REMARK  138  A    between atoms: _338  and  _341
REMARK  139  A    between atoms: _341  and  _342
REMARK  140  A    between atoms: _345  and  _347
REMARK  141  A    between atoms: _347  and  _348
REMARK  142  A    between atoms: _347  and  _350
REMARK  143  A    between atoms: _350  and  _351
REMARK  144  A    between atoms: _354  and  _356
REMARK  145  A    between atoms: _356  and  _357
REMARK  146  A    between atoms: _356  and  _359
REMARK  147  A    between atoms: _359  and  _360
REMARK  148  A    between atoms: _365  and  _367
REMARK  149  A    between atoms: _367  and  _368
REMARK  150  A    between atoms: _367  and  _370
REMARK  151  A    between atoms: _370  and  _371
REMARK  152  A    between atoms: _377  and  _379
REMARK  153  A    between atoms: _379  and  _380
REMARK  154  A    between atoms: _379  and  _382
REMARK  155  A    between atoms: _382  and  _383
REMARK  156  A    between atoms: _383  and  _384
REMARK  157  A    between atoms: _389  and  _391
REMARK  158  A    between atoms: _391  and  _392
REMARK  159  A    between atoms: _394  and  _396
REMARK  160  A    between atoms: _396  and  _397
REMARK  161  A    between atoms: _396  and  _399
REMARK  162  A    between atoms: _399  and  _400
REMARK  163  A    between atoms: _403  and  _405
REMARK  164  A    between atoms: _405  and  _406
REMARK  165  A    between atoms: _405  and  _408
REMARK  166  A    between atoms: _408  and  _409
REMARK  167  A    between atoms: _412  and  _414
REMARK  168  A    between atoms: _414  and  _415
REMARK  169  A    between atoms: _414  and  _417
REMARK  170  A    between atoms: _417  and  _418
REMARK  171  A    between atoms: _423  and  _424
REMARK  172  A    between atoms: _426  and  _428
REMARK  173  A    between atoms: _428  and  _429
REMARK  174  A    between atoms: _428  and  _431
REMARK  175  A    between atoms: _434  and  _436
REMARK  176  A    between atoms: _436  and  _437
REMARK  177  A    between atoms: _440  and  _442
REMARK  178  A    between atoms: _442  and  _443
REMARK  179  A    between atoms: _442  and  _445
REMARK  180  A    between atoms: _445  and  _446
REMARK  181  A    between atoms: _449  and  _451
REMARK  182  A    between atoms: _451  and  _452
REMARK  183  A    between atoms: _451  and  _454
REMARK  184  A    between atoms: _454  and  _455
REMARK  185  A    between atoms: _455  and  _456
REMARK  186  A    between atoms: _459  and  _461
REMARK  187  A    between atoms: _461  and  _462
REMARK  188  A    between atoms: _461  and  _464
REMARK  189  A    between atoms: _464  and  _465
REMARK  190  A    between atoms: _468  and  _470
REMARK  191  A    between atoms: _470  and  _471
REMARK  192  A    between atoms: _470  and  _473
REMARK  193  A    between atoms: _473  and  _474
REMARK  194  A    between atoms: _479  and  _481
REMARK  195  A    between atoms: _481  and  _482
REMARK  196  A    between atoms: _484  and  _486
REMARK  197  A    between atoms: _486  and  _487
REMARK  198  A    between atoms: _490  and  _492
REMARK  199  A    between atoms: _492  and  _493
REMARK  200  A    between atoms: _492  and  _495
REMARK  201  A    between atoms: _495  and  _496
REMARK  202  A    between atoms: _501  and  _503
REMARK  203  A    between atoms: _503  and  _504
REMARK  204  A    between atoms: _503  and  _506
REMARK  205  A    between atoms: _506  and  _507
REMARK  206  A    between atoms: _510  and  _512
REMARK  207  A    between atoms: _512  and  _513
REMARK  208  A    between atoms: _512  and  _515
REMARK  209  A    between atoms: _515  and  _516
REMARK  210  A    between atoms: _519  and  _521
REMARK  211  A    between atoms: _521  and  _522
REMARK  212  A    between atoms: _521  and  _524
REMARK  213  A    between atoms: _524  and  _525
REMARK  214  A    between atoms: _525  and  _526
REMARK  215  A    between atoms: _526  and  _527
REMARK  216  A    between atoms: _536  and  _538
REMARK  217  A    between atoms: _538  and  _539
REMARK  218  A    between atoms: _538  and  _541
REMARK  219  A    between atoms: _541  and  _542
REMARK  220  A    between atoms: _547  and  _549
REMARK  221  A    between atoms: _549  and  _550
REMARK  222  A    between atoms: _549  and  _552
REMARK  223  A    between atoms: _552  and  _553
REMARK  224  A    between atoms: _553  and  _554
REMARK  225  A    between atoms: _557  and  _559
REMARK  226  A    between atoms: _559  and  _560
REMARK  227  A    between atoms: _563  and  _565
REMARK  228  A    between atoms: _565  and  _566
REMARK  229  A    between atoms: _565  and  _568
REMARK  230  A    between atoms: _571  and  _573
REMARK  231  A    between atoms: _573  and  _574
REMARK  232  A    between atoms: _573  and  _576
REMARK  233  A    between atoms: _576  and  _577
REMARK  234  A    between atoms: _580  and  _582
REMARK  235  A    between atoms: _582  and  _583
REMARK  236  A    between atoms: _586  and  _588
REMARK  237  A    between atoms: _588  and  _589
REMARK  238  A    between atoms: _591  and  _593
REMARK  239  A    between atoms: _593  and  _594
REMARK  240  A    between atoms: _596  and  _598
REMARK  241  A    between atoms: _598  and  _599
REMARK  242  A    between atoms: _601  and  _603
REMARK  243  A    between atoms: _603  and  _604
REMARK  244  A    between atoms: _603  and  _606
REMARK  245  A    between atoms: _606  and  _607
REMARK  246  A    between atoms: _613  and  _615
REMARK  247  A    between atoms: _615  and  _616
REMARK  248  A    between atoms: _615  and  _618
REMARK  249  A    between atoms: _618  and  _619
REMARK  250  A    between atoms: _622  and  _624
REMARK  251  A    between atoms: _624  and  _625
REMARK  252  A    between atoms: _624  and  _627
REMARK  253  A    between atoms: _627  and  _628
REMARK  254  A    between atoms: _633  and  _635
REMARK  255  A    between atoms: _635  and  _636
REMARK  256  A    between atoms: _639  and  _641
REMARK  257  A    between atoms: _641  and  _642
REMARK  258  A    between atoms: _641  and  _644
REMARK  259  A    between atoms: _644  and  _645
REMARK  260  A    between atoms: _648  and  _650
REMARK  261  A    between atoms: _650  and  _651
REMARK  262  A    between atoms: _650  and  _653
REMARK  263  A    between atoms: _653  and  _654
REMARK  264  A    between atoms: _654  and  _655
REMARK  265  A    between atoms: _660  and  _662
REMARK  266  A    between atoms: _662  and  _663
REMARK  267  A    between atoms: _662  and  _665
REMARK  268  A    between atoms: _665  and  _666
REMARK                            x       y       z     vdW  Elec       q    Type
REMARK                         _______ _______ _______ _____ _____    ______ ____
ROOT
ATOM      1  O   HOH     1     -48.104  22.563  12.345  0.00  0.00    +0.000 OA
ENDROOT
TORSDOF 0
REMARK  Name = ../refined-set-2016/3d7k/3d7k_pocket.pdb
REMARK  268 active torsions:
REMARK  status: ('A' for Active; 'I' for Inactive)
REMARK    1  A    between atoms: _1  and  _3
REMARK    2  A    between atoms: _3  and  _4
REMARK    3  A    between atoms: _3  and  _6
REMARK    4  A    between atoms: _6  and  _7
REMARK    5  A    between atoms: _10  and  _12
REMARK    6  A    between atoms: _12  and  _13
REMARK    7  A    between atoms: _12  and  _15
REMARK    8  A    between atoms: _15  and  _16
REMARK    9  A    between atoms: _20  and  _21
REMARK   10  A    between atoms: _26  and  _28
REMARK   11  A    between atoms: _28  and  _29
REMARK   12  A    between atoms: _28  and  _31
REMARK   13  A    between atoms: _31  and  _32
REMARK   14  A    between atoms: _35  and  _37
REMARK   15  A    between atoms: _37  and  _38
REMARK   16  A    between atoms: _40  and  _42
REMARK   17  A    between atoms: _42  and  _43
REMARK   18  A    between atoms: _46  and  _48
REMARK   19  A    between atoms: _48  and  _49
REMARK   20  A    between atoms: _48  and  _51
REMARK   21  A    between atoms: _51  and  _52
REMARK   22  A    between atoms: _55  and  _57
REMARK   23  A    between atoms: _57  and  _58
REMARK   24  A    between atoms: _57  and  _60
REMARK   25  A    between atoms: _60  and  _61
REMARK   26  A    between atoms: _64  and  _66
REMARK   27  A    between atoms: _66  and  _67
REMARK   28  A    between atoms: _66  and  _69
REMARK   29  A    between atoms: _69  and  _70
REMARK   30  A    between atoms: _75  and  _76
REMARK   31  A    between atoms: _78  and  _80
REMARK   32  A    between atoms: _80  and  _81
REMARK   33  A    between atoms: _80  and  _83
REMARK   34  A    between atoms: _83  and  _84
REMARK   35  A    between atoms: _87  and  _89
REMARK   36  A    between atoms: _89  and  _90
REMARK   37  A    between atoms: _89  and  _92
REMARK   38  A    between atoms: _92  and  _93
REMARK   39  A    between atoms: _103  and  _105
REMARK   40  A    between atoms: _105  and  _106
REMARK   41  A    between atoms: _105  and  _108
REMARK   42  A    between atoms: _108  and  _109
REMARK   43  A    between atoms: _112  and  _114
REMARK   44  A    between atoms: _114  and  _115
REMARK   45  A    between atoms: _114  and  _117
REMARK   46  A    between atoms: _117  and  _118
REMARK   47  A    between atoms: _123  and  _125
REMARK   48  A    between atoms: _125  and  _126
REMARK   49  A    between atoms: _128  and  _130
REMARK   50  A    between atoms: _130  and  _131
REMARK   51  A    between atoms: _130  and  _133
REMARK   52  A    between atoms: _133  and  _134
REMARK   53  A    between atoms: _139  and  _140
REMARK   54  A    between atoms: _142  and  _144
REMARK   55  A    between atoms: _144  and  _145
REMARK   56  A    between atoms: _144  and  _147
REMARK   57  A    between atoms: _147  and  _148
REMARK   58  A    between atoms: _151  and  _153
REMARK   59  A    between atoms: _153  and  _154
REMARK   60  A    between atoms: _156  and  _158
REMARK   61  A    between atoms: _158  and  _159
REMARK   62  A    between atoms: _158  and  _161
REMARK   63  A    between atoms: _161  and  _162
REMARK   64  A    between atoms: _164  and  _166
REMARK   65  A    between atoms: _166  and  _167
REMARK   66  A    between atoms: _166  and  _169
REMARK   67  A    between atoms: _169  and  _170
REMARK   68  A    between atoms: _170  and  _171
REMARK   69  A    between atoms: _173  and  _175
REMARK   70  A    between atoms: _175  and  _176
REMARK   71  A    between atoms: _178  and  _180
REMARK   72  A    between atoms: _180  and  _181
REMARK   73  A    between atoms: _180  and  _183
REMARK   74  A    between atoms: _186  and  _188
REMARK   75  A    between atoms: _188  and  _189
REMARK   76  A    between atoms: _188  and  _191
REMARK   77  A    between atoms: _191  and  _192
REMARK   78  A    between atoms: _195  and  _197
REMARK   79  A    between atoms: _197  and  _198
REMARK   80  A    between atoms: _200  and  _202
REMARK   81  A    between atoms: _202  and  _203
REMARK   82  A    between atoms: _202  and  _205
REMARK   83  A    between atoms: _205  and  _206
REMARK   84  A    between atoms: _206  and  _207
REMARK   85  A    between atoms: _207  and  CA_676
REMARK   86  A    between atoms: _209  and  _211
REMARK   87  A    between atoms: _211  and  _212
REMARK   88  A    between atoms: _214  and  _216
REMARK   89  A    between atoms: _216  and  _217
REMARK   90  A    between atoms: _216  and  _219
REMARK   91  A    between atoms: _219  and  _220
REMARK   92  A    between atoms: _222  and  _224
REMARK   93  A    between atoms: _224  and  _225
REMARK   94  A    between atoms: _224  and  _227
REMARK   95  A    between atoms: _230  and  _232
REMARK   96  A    between atoms: _232  and  _233
REMARK   97  A    between atoms: _235  and  _237
REMARK   98  A    between atoms: _237  and  _238
REMARK   99  A    between atoms: _237  and  _240
REMARK  100  A    between atoms: _240  and  _241
REMARK  101  A    between atoms: _246  and  _247
REMARK  102  A    between atoms: _249  and  _251
REMARK  103  A    between atoms: _251  and  _252
REMARK  104  A    between atoms: _251  and  _254
REMARK  105  A    between atoms: _254  and  _255
REMARK  106  A    between atoms: _258  and  _260
REMARK  107  A    between atoms: _260  and  _261
REMARK  108  A    between atoms: _260  and  _263
REMARK  109  A    between atoms: _263  and  _264
REMARK  110  A    between atoms: _264  and  _265
REMARK  111  A    between atoms: _267  and  _269
REMARK  112  A    between atoms: _269  and  _270
REMARK  113  A    between atoms: _269  and  _272
REMARK  114  A    between atoms: _272  and  _273
REMARK  115  A    between atoms: _278  and  _280
REMARK  116  A    between atoms: _280  and  _281
REMARK  117  A    between atoms: _280  and  _283
REMARK  118  A    between atoms: _283  and  _284
REMARK  119  A    between atoms: _289  and  _291
REMARK  120  A    between atoms: _291  and  _292
REMARK  121  A    between atoms: _291  and  _294
REMARK  122  A    between atoms: _294  and  _295
REMARK  123  A    between atoms: _295  and  _296
REMARK  124  A    between atoms: _301  and  _303
REMARK  125  A    between atoms: _303  and  _304
REMARK  126  A    between atoms: _303  and  _306
REMARK  127  A    between atoms: _306  and  _307
REMARK  128  A    between atoms: _309  and  _311
REMARK  129  A    between atoms: _311  and  _312
REMARK  130  A    between atoms: _311  and  _314
REMARK  131  A    between atoms: _314  and  _315
REMARK  132  A    between atoms: _325  and  _327
REMARK  133  A    between atoms: _327  and  _328
REMARK  134  A    between atoms: _330  and  _332
REMARK  135  A    between atoms: _332  and  _333
REMARK  136  A    between atoms: _336  and  _338
REMARK  137  A    between atoms: _338  and  _339
REMARK  138  A    between atoms: _338  and  _341
REMARK  139  A    between atoms: _341  and  _342
REMARK  140  A    between atoms: _345  and  _347
REMARK  141  A    between atoms: _347  and  _348
REMARK  142  A    between atoms: _347  and  _350
REMARK  143  A    between atoms: _350  and  _351
REMARK  144  A    between atoms: _354  and  _356
REMARK  145  A    between atoms: _356  and  _357
REMARK  146  A    between atoms: _356  and  _359
REMARK  147  A    between atoms: _359  and  _360
REMARK  148  A    between atoms: _365  and  _367
REMARK  149  A    between atoms: _367  and  _368
REMARK  150  A    between atoms: _367  and  _370
REMARK  151  A    between atoms: _370  and  _371
REMARK  152  A    between atoms: _377  and  _379
REMARK  153  A    between atoms: _379  and  _380
REMARK  154  A    between atoms: _379  and  _382
REMARK  155  A    between atoms: _382  and  _383
REMARK  156  A    between atoms: _383  and  _384
REMARK  157  A    between atoms: _389  and  _391
REMARK  158  A    between atoms: _391  and  _392
REMARK  159  A    between atoms: _394  and  _396
REMARK  160  A    between atoms: _396  and  _397
REMARK  161  A    between atoms: _396  and  _399
REMARK  162  A    between atoms: _399  and  _400
REMARK  163  A    between atoms: _403  and  _405
REMARK  164  A    between atoms: _405  and  _406
REMARK  165  A    between atoms: _405  and  _408
REMARK  166  A    between atoms: _408  and  _409
REMARK  167  A    between atoms: _412  and  _414
REMARK  168  A    between atoms: _414  and  _415
REMARK  169  A    between atoms: _414  and  _417
REMARK  170  A    between atoms: _417  and  _418
REMARK  171  A    between atoms: _423  and  _424
REMARK  172  A    between atoms: _426  and  _428
REMARK  173  A    between atoms: _428  and  _429
REMARK  174  A    between atoms: _428  and  _431
REMARK  175  A    between atoms: _434  and  _436
REMARK  176  A    between atoms: _436  and  _437
REMARK  177  A    between atoms: _440  and  _442
REMARK  178  A    between atoms: _442  and  _443
REMARK  179  A    between atoms: _442  and  _445
REMARK  180  A    between atoms: _445  and  _446
REMARK  181  A    between atoms: _449  and  _451
REMARK  182  A    between atoms: _451  and  _452
REMARK  183  A    between atoms: _451  and  _454
REMARK  184  A    between atoms: _454  and  _455
REMARK  185  A    between atoms: _455  and  _456
REMARK  186  A    between atoms: _459  and  _461
REMARK  187  A    between atoms: _461  and  _462
REMARK  188  A    between atoms: _461  and  _464
REMARK  189  A    between atoms: _464  and  _465
REMARK  190  A    between atoms: _468  and  _470
REMARK  191  A    between atoms: _470  and  _471
REMARK  192  A    between atoms: _470  and  _473
REMARK  193  A    between atoms: _473  and  _474
REMARK  194  A    between atoms: _479  and  _481
REMARK  195  A    between atoms: _481  and  _482
REMARK  196  A    between atoms: _484  and  _486
REMARK  197  A    between atoms: _486  and  _487
REMARK  198  A    between atoms: _490  and  _492
REMARK  199  A    between atoms: _492  and  _493
REMARK  200  A    between atoms: _492  and  _495
REMARK  201  A    between atoms: _495  and  _496
REMARK  202  A    between atoms: _501  and  _503
REMARK  203  A    between atoms: _503  and  _504
REMARK  204  A    between atoms: _503  and  _506
REMARK  205  A    between atoms: _506  and  _507
REMARK  206  A    between atoms: _510  and  _512
REMARK  207  A    between atoms: _512  and  _513
REMARK  208  A    between atoms: _512  and  _515
REMARK  209  A    between atoms: _515  and  _516
REMARK  210  A    between atoms: _519  and  _521
REMARK  211  A    between atoms: _521  and  _522
REMARK  212  A    between atoms: _521  and  _524
REMARK  213  A    between atoms: _524  and  _525
REMARK  214  A    between atoms: _525  and  _526
REMARK  215  A    between atoms: _526  and  _527
REMARK  216  A    between atoms: _536  and  _538
REMARK  217  A    between atoms: _538  and  _539
REMARK  218  A    between atoms: _538  and  _541
REMARK  219  A    between atoms: _541  and  _542
REMARK  220  A    between atoms: _547  and  _549
REMARK  221  A    between atoms: _549  and  _550
REMARK  222  A    between atoms: _549  and  _552
REMARK  223  A    between atoms: _552  and  _553
REMARK  224  A    between atoms: _553  and  _554
REMARK  225  A    between atoms: _557  and  _559
REMARK  226  A    between atoms: _559  and  _560
REMARK  227  A    between atoms: _563  and  _565
REMARK  228  A    between atoms: _565  and  _566
REMARK  229  A    between atoms: _565  and  _568
REMARK  230  A    between atoms: _571  and  _573
REMARK  231  A    between atoms: _573  and  _574
REMARK  232  A    between atoms: _573  and  _576
REMARK  233  A    between atoms: _576  and  _577
REMARK  234  A    between atoms: _580  and  _582
REMARK  235  A    between atoms: _582  and  _583
REMARK  236  A    between atoms: _586  and  _588
REMARK  237  A    between atoms: _588  and  _589
REMARK  238  A    between atoms: _591  and  _593
REMARK  239  A    between atoms: _593  and  _594
REMARK  240  A    between atoms: _596  and  _598
REMARK  241  A    between atoms: _598  and  _599
REMARK  242  A    between atoms: _601  and  _603
REMARK  243  A    between atoms: _603  and  _604
REMARK  244  A    between atoms: _603  and  _606
REMARK  245  A    between atoms: _606  and  _607
REMARK  246  A    between atoms: _613  and  _615
REMARK  247  A    between atoms: _615  and  _616
REMARK  248  A    between atoms: _615  and  _618
REMARK  249  A    between atoms: _618  and  _619
REMARK  250  A    between atoms: _622  and  _624
REMARK  251  A    between atoms: _624  and  _625
REMARK  252  A    between atoms: _624  and  _627
REMARK  253  A    between atoms: _627  and  _628
REMARK  254  A    between atoms: _633  and  _635
REMARK  255  A    between atoms: _635  and  _636
REMARK  256  A    between atoms: _639  and  _641
REMARK  257  A    between atoms: _641  and  _642
REMARK  258  A    between atoms: _641  and  _644
REMARK  259  A    between atoms: _644  and  _645
REMARK  260  A    between atoms: _648  and  _650
REMARK  261  A    between atoms: _650  and  _651
REMARK  262  A    between atoms: _650  and  _653
REMARK  263  A    between atoms: _653  and  _654
REMARK  264  A    between atoms: _654  and  _655
REMARK  265  A    between atoms: _660  and  _662
REMARK  266  A    between atoms: _662  and  _663
REMARK  267  A    between atoms: _662  and  _665
REMARK  268  A    between atoms: _665  and  _666
REMARK                            x       y       z     vdW  Elec       q    Type
REMARK                         _______ _______ _______ _____ _____    ______ ____
ROOT
ATOM      1  O   HOH     1     -53.288  20.895   6.107  0.00  0.00    +0.000 OA
ENDROOT
TORSDOF 0
REMARK  Name = ../refined-set-2016/3d7k/3d7k_pocket.pdb
REMARK  268 active torsions:
REMARK  status: ('A' for Active; 'I' for Inactive)
REMARK    1  A    between atoms: _1  and  _3
REMARK    2  A    between atoms: _3  and  _4
REMARK    3  A    between atoms: _3  and  _6
REMARK    4  A    between atoms: _6  and  _7
REMARK    5  A    between atoms: _10  and  _12
REMARK    6  A    between atoms: _12  and  _13
REMARK    7  A    between atoms: _12  and  _15
REMARK    8  A    between atoms: _15  and  _16
REMARK    9  A    between atoms: _20  and  _21
REMARK   10  A    between atoms: _26  and  _28
REMARK   11  A    between atoms: _28  and  _29
REMARK   12  A    between atoms: _28  and  _31
REMARK   13  A    between atoms: _31  and  _32
REMARK   14  A    between atoms: _35  and  _37
REMARK   15  A    between atoms: _37  and  _38
REMARK   16  A    between atoms: _40  and  _42
REMARK   17  A    between atoms: _42  and  _43
REMARK   18  A    between atoms: _46  and  _48
REMARK   19  A    between atoms: _48  and  _49
REMARK   20  A    between atoms: _48  and  _51
REMARK   21  A    between atoms: _51  and  _52
REMARK   22  A    between atoms: _55  and  _57
REMARK   23  A    between atoms: _57  and  _58
REMARK   24  A    between atoms: _57  and  _60
REMARK   25  A    between atoms: _60  and  _61
REMARK   26  A    between atoms: _64  and  _66
REMARK   27  A    between atoms: _66  and  _67
REMARK   28  A    between atoms: _66  and  _69
REMARK   29  A    between atoms: _69  and  _70
REMARK   30  A    between atoms: _75  and  _76
REMARK   31  A    between atoms: _78  and  _80
REMARK   32  A    between atoms: _80  and  _81
REMARK   33  A    between atoms: _80  and  _83
REMARK   34  A    between atoms: _83  and  _84
REMARK   35  A    between atoms: _87  and  _89
REMARK   36  A    between atoms: _89  and  _90
REMARK   37  A    between atoms: _89  and  _92
REMARK   38  A    between atoms: _92  and  _93
REMARK   39  A    between atoms: _103  and  _105
REMARK   40  A    between atoms: _105  and  _106
REMARK   41  A    between atoms: _105  and  _108
REMARK   42  A    between atoms: _108  and  _109
REMARK   43  A    between atoms: _112  and  _114
REMARK   44  A    between atoms: _114  and  _115
REMARK   45  A    between atoms: _114  and  _117
REMARK   46  A    between atoms: _117  and  _118
REMARK   47  A    between atoms: _123  and  _125
REMARK   48  A    between atoms: _125  and  _126
REMARK   49  A    between atoms: _128  and  _130
REMARK   50  A    between atoms: _130  and  _131
REMARK   51  A    between atoms: _130  and  _133
REMARK   52  A    between atoms: _133  and  _134
REMARK   53  A    between atoms: _139  and  _140
REMARK   54  A    between atoms: _142  and  _144
REMARK   55  A    between atoms: _144  and  _145
REMARK   56  A    between atoms: _144  and  _147
REMARK   57  A    between atoms: _147  and  _148
REMARK   58  A    between atoms: _151  and  _153
REMARK   59  A    between atoms: _153  and  _154
REMARK   60  A    between atoms: _156  and  _158
REMARK   61  A    between atoms: _158  and  _159
REMARK   62  A    between atoms: _158  and  _161
REMARK   63  A    between atoms: _161  and  _162
REMARK   64  A    between atoms: _164  and  _166
REMARK   65  A    between atoms: _166  and  _167
REMARK   66  A    between atoms: _166  and  _169
REMARK   67  A    between atoms: _169  and  _170
REMARK   68  A    between atoms: _170  and  _171
REMARK   69  A    between atoms: _173  and  _175
REMARK   70  A    between atoms: _175  and  _176
REMARK   71  A    between atoms: _178  and  _180
REMARK   72  A    between atoms: _180  and  _181
REMARK   73  A    between atoms: _180  and  _183
REMARK   74  A    between atoms: _186  and  _188
REMARK   75  A    between atoms: _188  and  _189
REMARK   76  A    between atoms: _188  and  _191
REMARK   77  A    between atoms: _191  and  _192
REMARK   78  A    between atoms: _195  and  _197
REMARK   79  A    between atoms: _197  and  _198
REMARK   80  A    between atoms: _200  and  _202
REMARK   81  A    between atoms: _202  and  _203
REMARK   82  A    between atoms: _202  and  _205
REMARK   83  A    between atoms: _205  and  _206
REMARK   84  A    between atoms: _206  and  _207
REMARK   85  A    between atoms: _207  and  CA_676
REMARK   86  A    between atoms: _209  and  _211
REMARK   87  A    between atoms: _211  and  _212
REMARK   88  A    between atoms: _214  and  _216
REMARK   89  A    between atoms: _216  and  _217
REMARK   90  A    between atoms: _216  and  _219
REMARK   91  A    between atoms: _219  and  _220
REMARK   92  A    between atoms: _222  and  _224
REMARK   93  A    between atoms: _224  and  _225
REMARK   94  A    between atoms: _224  and  _227
REMARK   95  A    between atoms: _230  and  _232
REMARK   96  A    between atoms: _232  and  _233
REMARK   97  A    between atoms: _235  and  _237
REMARK   98  A    between atoms: _237  and  _238
REMARK   99  A    between atoms: _237  and  _240
REMARK  100  A    between atoms: _240  and  _241
REMARK  101  A    between atoms: _246  and  _247
REMARK  102  A    between atoms: _249  and  _251
REMARK  103  A    between atoms: _251  and  _252
REMARK  104  A    between atoms: _251  and  _254
REMARK  105  A    between atoms: _254  and  _255
REMARK  106  A    between atoms: _258  and  _260
REMARK  107  A    between atoms: _260  and  _261
REMARK  108  A    between atoms: _260  and  _263
REMARK  109  A    between atoms: _263  and  _264
REMARK  110  A    between atoms: _264  and  _265
REMARK  111  A    between atoms: _267  and  _269
REMARK  112  A    between atoms: _269  and  _270
REMARK  113  A    between atoms: _269  and  _272
REMARK  114  A    between atoms: _272  and  _273
REMARK  115  A    between atoms: _278  and  _280
REMARK  116  A    between atoms: _280  and  _281
REMARK  117  A    between atoms: _280  and  _283
REMARK  118  A    between atoms: _283  and  _284
REMARK  119  A    between atoms: _289  and  _291
REMARK  120  A    between atoms: _291  and  _292
REMARK  121  A    between atoms: _291  and  _294
REMARK  122  A    between atoms: _294  and  _295
REMARK  123  A    between atoms: _295  and  _296
REMARK  124  A    between atoms: _301  and  _303
REMARK  125  A    between atoms: _303  and  _304
REMARK  126  A    between atoms: _303  and  _306
REMARK  127  A    between atoms: _306  and  _307
REMARK  128  A    between atoms: _309  and  _311
REMARK  129  A    between atoms: _311  and  _312
REMARK  130  A    between atoms: _311  and  _314
REMARK  131  A    between atoms: _314  and  _315
REMARK  132  A    between atoms: _325  and  _327
REMARK  133  A    between atoms: _327  and  _328
REMARK  134  A    between atoms: _330  and  _332
REMARK  135  A    between atoms: _332  and  _333
REMARK  136  A    between atoms: _336  and  _338
REMARK  137  A    between atoms: _338  and  _339
REMARK  138  A    between atoms: _338  and  _341
REMARK  139  A    between atoms: _341  and  _342
REMARK  140  A    between atoms: _345  and  _347
REMARK  141  A    between atoms: _347  and  _348
REMARK  142  A    between atoms: _347  and  _350
REMARK  143  A    between atoms: _350  and  _351
REMARK  144  A    between atoms: _354  and  _356
REMARK  145  A    between atoms: _356  and  _357
REMARK  146  A    between atoms: _356  and  _359
REMARK  147  A    between atoms: _359  and  _360
REMARK  148  A    between atoms: _365  and  _367
REMARK  149  A    between atoms: _367  and  _368
REMARK  150  A    between atoms: _367  and  _370
REMARK  151  A    between atoms: _370  and  _371
REMARK  152  A    between atoms: _377  and  _379
REMARK  153  A    between atoms: _379  and  _380
REMARK  154  A    between atoms: _379  and  _382
REMARK  155  A    between atoms: _382  and  _383
REMARK  156  A    between atoms: _383  and  _384
REMARK  157  A    between atoms: _389  and  _391
REMARK  158  A    between atoms: _391  and  _392
REMARK  159  A    between atoms: _394  and  _396
REMARK  160  A    between atoms: _396  and  _397
REMARK  161  A    between atoms: _396  and  _399
REMARK  162  A    between atoms: _399  and  _400
REMARK  163  A    between atoms: _403  and  _405
REMARK  164  A    between atoms: _405  and  _406
REMARK  165  A    between atoms: _405  and  _408
REMARK  166  A    between atoms: _408  and  _409
REMARK  167  A    between atoms: _412  and  _414
REMARK  168  A    between atoms: _414  and  _415
REMARK  169  A    between atoms: _414  and  _417
REMARK  170  A    between atoms: _417  and  _418
REMARK  171  A    between atoms: _423  and  _424
REMARK  172  A    between atoms: _426  and  _428
REMARK  173  A    between atoms: _428  and  _429
REMARK  174  A    between atoms: _428  and  _431
REMARK  175  A    between atoms: _434  and  _436
REMARK  176  A    between atoms: _436  and  _437
REMARK  177  A    between atoms: _440  and  _442
REMARK  178  A    between atoms: _442  and  _443
REMARK  179  A    between atoms: _442  and  _445
REMARK  180  A    between atoms: _445  and  _446
REMARK  181  A    between atoms: _449  and  _451
REMARK  182  A    between atoms: _451  and  _452
REMARK  183  A    between atoms: _451  and  _454
REMARK  184  A    between atoms: _454  and  _455
REMARK  185  A    between atoms: _455  and  _456
REMARK  186  A    between atoms: _459  and  _461
REMARK  187  A    between atoms: _461  and  _462
REMARK  188  A    between atoms: _461  and  _464
REMARK  189  A    between atoms: _464  and  _465
REMARK  190  A    between atoms: _468  and  _470
REMARK  191  A    between atoms: _470  and  _471
REMARK  192  A    between atoms: _470  and  _473
REMARK  193  A    between atoms: _473  and  _474
REMARK  194  A    between atoms: _479  and  _481
REMARK  195  A    between atoms: _481  and  _482
REMARK  196  A    between atoms: _484  and  _486
REMARK  197  A    between atoms: _486  and  _487
REMARK  198  A    between atoms: _490  and  _492
REMARK  199  A    between atoms: _492  and  _493
REMARK  200  A    between atoms: _492  and  _495
REMARK  201  A    between atoms: _495  and  _496
REMARK  202  A    between atoms: _501  and  _503
REMARK  203  A    between atoms: _503  and  _504
REMARK  204  A    between atoms: _503  and  _506
REMARK  205  A    between atoms: _506  and  _507
REMARK  206  A    between atoms: _510  and  _512
REMARK  207  A    between atoms: _512  and  _513
REMARK  208  A    between atoms: _512  and  _515
REMARK  209  A    between atoms: _515  and  _516
REMARK  210  A    between atoms: _519  and  _521
REMARK  211  A    between atoms: _521  and  _522
REMARK  212  A    between atoms: _521  and  _524
REMARK  213  A    between atoms: _524  and  _525
REMARK  214  A    between atoms: _525  and  _526
REMARK  215  A    between atoms: _526  and  _527
REMARK  216  A    between atoms: _536  and  _538
REMARK  217  A    between atoms: _538  and  _539
REMARK  218  A    between atoms: _538  and  _541
REMARK  219  A    between atoms: _541  and  _542
REMARK  220  A    between atoms: _547  and  _549
REMARK  221  A    between atoms: _549  and  _550
REMARK  222  A    between atoms: _549  and  _552
REMARK  223  A    between atoms: _552  and  _553
REMARK  224  A    between atoms: _553  and  _554
REMARK  225  A    between atoms: _557  and  _559
REMARK  226  A    between atoms: _559  and  _560
REMARK  227  A    between atoms: _563  and  _565
REMARK  228  A    between atoms: _565  and  _566
REMARK  229  A    between atoms: _565  and  _568
REMARK  230  A    between atoms: _571  and  _573
REMARK  231  A    between atoms: _573  and  _574
REMARK  232  A    between atoms: _573  and  _576
REMARK  233  A    between atoms: _576  and  _577
REMARK  234  A    between atoms: _580  and  _582
REMARK  235  A    between atoms: _582  and  _583
REMARK  236  A    between atoms: _586  and  _588
REMARK  237  A    between atoms: _588  and  _589
REMARK  238  A    between atoms: _591  and  _593
REMARK  239  A    between atoms: _593  and  _594
REMARK  240  A    between atoms: _596  and  _598
REMARK  241  A    between atoms: _598  and  _599
REMARK  242  A    between atoms: _601  and  _603
REMARK  243  A    between atoms: _603  and  _604
REMARK  244  A    between atoms: _603  and  _606
REMARK  245  A    between atoms: _606  and  _607
REMARK  246  A    between atoms: _613  and  _615
REMARK  247  A    between atoms: _615  and  _616
REMARK  248  A    between atoms: _615  and  _618
REMARK  249  A    between atoms: _618  and  _619
REMARK  250  A    between atoms: _622  and  _624
REMARK  251  A    between atoms: _624  and  _625
REMARK  252  A    between atoms: _624  and  _627
REMARK  253  A    between atoms: _627  and  _628
REMARK  254  A    between atoms: _633  and  _635
REMARK  255  A    between atoms: _635  and  _636
REMARK  256  A    between atoms: _639  and  _641
REMARK  257  A    between atoms: _641  and  _642
REMARK  258  A    between atoms: _641  and  _644
REMARK  259  A    between atoms: _644  and  _645
REMARK  260  A    between atoms: _648  and  _650
REMARK  261  A    between atoms: _650  and  _651
REMARK  262  A    between atoms: _650  and  _653
REMARK  263  A    between atoms: _653  and  _654
REMARK  264  A    between atoms: _654  and  _655
REMARK  265  A    between atoms: _660  and  _662
REMARK  266  A    between atoms: _662  and  _663
REMARK  267  A    between atoms: _662  and  _665
REMARK  268  A    between atoms: _665  and  _666
REMARK                            x       y       z     vdW  Elec       q    Type
REMARK                         _______ _______ _______ _____ _____    ______ ____
ROOT
ATOM      1  O   HOH     1     -43.208  30.217  -5.281  0.00  0.00    +0.000 OA
ENDROOT
TORSDOF 0
REMARK  Name = ../refined-set-2016/3d7k/3d7k_pocket.pdb
REMARK  268 active torsions:
REMARK  status: ('A' for Active; 'I' for Inactive)
REMARK    1  A    between atoms: _1  and  _3
REMARK    2  A    between atoms: _3  and  _4
REMARK    3  A    between atoms: _3  and  _6
REMARK    4  A    between atoms: _6  and  _7
REMARK    5  A    between atoms: _10  and  _12
REMARK    6  A    between atoms: _12  and  _13
REMARK    7  A    between atoms: _12  and  _15
REMARK    8  A    between atoms: _15  and  _16
REMARK    9  A    between atoms: _20  and  _21
REMARK   10  A    between atoms: _26  and  _28
REMARK   11  A    between atoms: _28  and  _29
REMARK   12  A    between atoms: _28  and  _31
REMARK   13  A    between atoms: _31  and  _32
REMARK   14  A    between atoms: _35  and  _37
REMARK   15  A    between atoms: _37  and  _38
REMARK   16  A    between atoms: _40  and  _42
REMARK   17  A    between atoms: _42  and  _43
REMARK   18  A    between atoms: _46  and  _48
REMARK   19  A    between atoms: _48  and  _49
REMARK   20  A    between atoms: _48  and  _51
REMARK   21  A    between atoms: _51  and  _52
REMARK   22  A    between atoms: _55  and  _57
REMARK   23  A    between atoms: _57  and  _58
REMARK   24  A    between atoms: _57  and  _60
REMARK   25  A    between atoms: _60  and  _61
REMARK   26  A    between atoms: _64  and  _66
REMARK   27  A    between atoms: _66  and  _67
REMARK   28  A    between atoms: _66  and  _69
REMARK   29  A    between atoms: _69  and  _70
REMARK   30  A    between atoms: _75  and  _76
REMARK   31  A    between atoms: _78  and  _80
REMARK   32  A    between atoms: _80  and  _81
REMARK   33  A    between atoms: _80  and  _83
REMARK   34  A    between atoms: _83  and  _84
REMARK   35  A    between atoms: _87  and  _89
REMARK   36  A    between atoms: _89  and  _90
REMARK   37  A    between atoms: _89  and  _92
REMARK   38  A    between atoms: _92  and  _93
REMARK   39  A    between atoms: _103  and  _105
REMARK   40  A    between atoms: _105  and  _106
REMARK   41  A    between atoms: _105  and  _108
REMARK   42  A    between atoms: _108  and  _109
REMARK   43  A    between atoms: _112  and  _114
REMARK   44  A    between atoms: _114  and  _115
REMARK   45  A    between atoms: _114  and  _117
REMARK   46  A    between atoms: _117  and  _118
REMARK   47  A    between atoms: _123  and  _125
REMARK   48  A    between atoms: _125  and  _126
REMARK   49  A    between atoms: _128  and  _130
REMARK   50  A    between atoms: _130  and  _131
REMARK   51  A    between atoms: _130  and  _133
REMARK   52  A    between atoms: _133  and  _134
REMARK   53  A    between atoms: _139  and  _140
REMARK   54  A    between atoms: _142  and  _144
REMARK   55  A    between atoms: _144  and  _145
REMARK   56  A    between atoms: _144  and  _147
REMARK   57  A    between atoms: _147  and  _148
REMARK   58  A    between atoms: _151  and  _153
REMARK   59  A    between atoms: _153  and  _154
REMARK   60  A    between atoms: _156  and  _158
REMARK   61  A    between atoms: _158  and  _159
REMARK   62  A    between atoms: _158  and  _161
REMARK   63  A    between atoms: _161  and  _162
REMARK   64  A    between atoms: _164  and  _166
REMARK   65  A    between atoms: _166  and  _167
REMARK   66  A    between atoms: _166  and  _169
REMARK   67  A    between atoms: _169  and  _170
REMARK   68  A    between atoms: _170  and  _171
REMARK   69  A    between atoms: _173  and  _175
REMARK   70  A    between atoms: _175  and  _176
REMARK   71  A    between atoms: _178  and  _180
REMARK   72  A    between atoms: _180  and  _181
REMARK   73  A    between atoms: _180  and  _183
REMARK   74  A    between atoms: _186  and  _188
REMARK   75  A    between atoms: _188  and  _189
REMARK   76  A    between atoms: _188  and  _191
REMARK   77  A    between atoms: _191  and  _192
REMARK   78  A    between atoms: _195  and  _197
REMARK   79  A    between atoms: _197  and  _198
REMARK   80  A    between atoms: _200  and  _202
REMARK   81  A    between atoms: _202  and  _203
REMARK   82  A    between atoms: _202  and  _205
REMARK   83  A    between atoms: _205  and  _206
REMARK   84  A    between atoms: _206  and  _207
REMARK   85  A    between atoms: _207  and  CA_676
REMARK   86  A    between atoms: _209  and  _211
REMARK   87  A    between atoms: _211  and  _212
REMARK   88  A    between atoms: _214  and  _216
REMARK   89  A    between atoms: _216  and  _217
REMARK   90  A    between atoms: _216  and  _219
REMARK   91  A    between atoms: _219  and  _220
REMARK   92  A    between atoms: _222  and  _224
REMARK   93  A    between atoms: _224  and  _225
REMARK   94  A    between atoms: _224  and  _227
REMARK   95  A    between atoms: _230  and  _232
REMARK   96  A    between atoms: _232  and  _233
REMARK   97  A    between atoms: _235  and  _237
REMARK   98  A    between atoms: _237  and  _238
REMARK   99  A    between atoms: _237  and  _240
REMARK  100  A    between atoms: _240  and  _241
REMARK  101  A    between atoms: _246  and  _247
REMARK  102  A    between atoms: _249  and  _251
REMARK  103  A    between atoms: _251  and  _252
REMARK  104  A    between atoms: _251  and  _254
REMARK  105  A    between atoms: _254  and  _255
REMARK  106  A    between atoms: _258  and  _260
REMARK  107  A    between atoms: _260  and  _261
REMARK  108  A    between atoms: _260  and  _263
REMARK  109  A    between atoms: _263  and  _264
REMARK  110  A    between atoms: _264  and  _265
REMARK  111  A    between atoms: _267  and  _269
REMARK  112  A    between atoms: _269  and  _270
REMARK  113  A    between atoms: _269  and  _272
REMARK  114  A    between atoms: _272  and  _273
REMARK  115  A    between atoms: _278  and  _280
REMARK  116  A    between atoms: _280  and  _281
REMARK  117  A    between atoms: _280  and  _283
REMARK  118  A    between atoms: _283  and  _284
REMARK  119  A    between atoms: _289  and  _291
REMARK  120  A    between atoms: _291  and  _292
REMARK  121  A    between atoms: _291  and  _294
REMARK  122  A    between atoms: _294  and  _295
REMARK  123  A    between atoms: _295  and  _296
REMARK  124  A    between atoms: _301  and  _303
REMARK  125  A    between atoms: _303  and  _304
REMARK  126  A    between atoms: _303  and  _306
REMARK  127  A    between atoms: _306  and  _307
REMARK  128  A    between atoms: _309  and  _311
REMARK  129  A    between atoms: _311  and  _312
REMARK  130  A    between atoms: _311  and  _314
REMARK  131  A    between atoms: _314  and  _315
REMARK  132  A    between atoms: _325  and  _327
REMARK  133  A    between atoms: _327  and  _328
REMARK  134  A    between atoms: _330  and  _332
REMARK  135  A    between atoms: _332  and  _333
REMARK  136  A    between atoms: _336  and  _338
REMARK  137  A    between atoms: _338  and  _339
REMARK  138  A    between atoms: _338  and  _341
REMARK  139  A    between atoms: _341  and  _342
REMARK  140  A    between atoms: _345  and  _347
REMARK  141  A    between atoms: _347  and  _348
REMARK  142  A    between atoms: _347  and  _350
REMARK  143  A    between atoms: _350  and  _351
REMARK  144  A    between atoms: _354  and  _356
REMARK  145  A    between atoms: _356  and  _357
REMARK  146  A    between atoms: _356  and  _359
REMARK  147  A    between atoms: _359  and  _360
REMARK  148  A    between atoms: _365  and  _367
REMARK  149  A    between atoms: _367  and  _368
REMARK  150  A    between atoms: _367  and  _370
REMARK  151  A    between atoms: _370  and  _371
REMARK  152  A    between atoms: _377  and  _379
REMARK  153  A    between atoms: _379  and  _380
REMARK  154  A    between atoms: _379  and  _382
REMARK  155  A    between atoms: _382  and  _383
REMARK  156  A    between atoms: _383  and  _384
REMARK  157  A    between atoms: _389  and  _391
REMARK  158  A    between atoms: _391  and  _392
REMARK  159  A    between atoms: _394  and  _396
REMARK  160  A    between atoms: _396  and  _397
REMARK  161  A    between atoms: _396  and  _399
REMARK  162  A    between atoms: _399  and  _400
REMARK  163  A    between atoms: _403  and  _405
REMARK  164  A    between atoms: _405  and  _406
REMARK  165  A    between atoms: _405  and  _408
REMARK  166  A    between atoms: _408  and  _409
REMARK  167  A    between atoms: _412  and  _414
REMARK  168  A    between atoms: _414  and  _415
REMARK  169  A    between atoms: _414  and  _417
REMARK  170  A    between atoms: _417  and  _418
REMARK  171  A    between atoms: _423  and  _424
REMARK  172  A    between atoms: _426  and  _428
REMARK  173  A    between atoms: _428  and  _429
REMARK  174  A    between atoms: _428  and  _431
REMARK  175  A    between atoms: _434  and  _436
REMARK  176  A    between atoms: _436  and  _437
REMARK  177  A    between atoms: _440  and  _442
REMARK  178  A    between atoms: _442  and  _443
REMARK  179  A    between atoms: _442  and  _445
REMARK  180  A    between atoms: _445  and  _446
REMARK  181  A    between atoms: _449  and  _451
REMARK  182  A    between atoms: _451  and  _452
REMARK  183  A    between atoms: _451  and  _454
REMARK  184  A    between atoms: _454  and  _455
REMARK  185  A    between atoms: _455  and  _456
REMARK  186  A    between atoms: _459  and  _461
REMARK  187  A    between atoms: _461  and  _462
REMARK  188  A    between atoms: _461  and  _464
REMARK  189  A    between atoms: _464  and  _465
REMARK  190  A    between atoms: _468  and  _470
REMARK  191  A    between atoms: _470  and  _471
REMARK  192  A    between atoms: _470  and  _473
REMARK  193  A    between atoms: _473  and  _474
REMARK  194  A    between atoms: _479  and  _481
REMARK  195  A    between atoms: _481  and  _482
REMARK  196  A    between atoms: _484  and  _486
REMARK  197  A    between atoms: _486  and  _487
REMARK  198  A    between atoms: _490  and  _492
REMARK  199  A    between atoms: _492  and  _493
REMARK  200  A    between atoms: _492  and  _495
REMARK  201  A    between atoms: _495  and  _496
REMARK  202  A    between atoms: _501  and  _503
REMARK  203  A    between atoms: _503  and  _504
REMARK  204  A    between atoms: _503  and  _506
REMARK  205  A    between atoms: _506  and  _507
REMARK  206  A    between atoms: _510  and  _512
REMARK  207  A    between atoms: _512  and  _513
REMARK  208  A    between atoms: _512  and  _515
REMARK  209  A    between atoms: _515  and  _516
REMARK  210  A    between atoms: _519  and  _521
REMARK  211  A    between atoms: _521  and  _522
REMARK  212  A    between atoms: _521  and  _524
REMARK  213  A    between atoms: _524  and  _525
REMARK  214  A    between atoms: _525  and  _526
REMARK  215  A    between atoms: _526  and  _527
REMARK  216  A    between atoms: _536  and  _538
REMARK  217  A    between atoms: _538  and  _539
REMARK  218  A    between atoms: _538  and  _541
REMARK  219  A    between atoms: _541  and  _542
REMARK  220  A    between atoms: _547  and  _549
REMARK  221  A    between atoms: _549  and  _550
REMARK  222  A    between atoms: _549  and  _552
REMARK  223  A    between atoms: _552  and  _553
REMARK  224  A    between atoms: _553  and  _554
REMARK  225  A    between atoms: _557  and  _559
REMARK  226  A    between atoms: _559  and  _560
REMARK  227  A    between atoms: _563  and  _565
REMARK  228  A    between atoms: _565  and  _566
REMARK  229  A    between atoms: _565  and  _568
REMARK  230  A    between atoms: _571  and  _573
REMARK  231  A    between atoms: _573  and  _574
REMARK  232  A    between atoms: _573  and  _576
REMARK  233  A    between atoms: _576  and  _577
REMARK  234  A    between atoms: _580  and  _582
REMARK  235  A    between atoms: _582  and  _583
REMARK  236  A    between atoms: _586  and  _588
REMARK  237  A    between atoms: _588  and  _589
REMARK  238  A    between atoms: _591  and  _593
REMARK  239  A    between atoms: _593  and  _594
REMARK  240  A    between atoms: _596  and  _598
REMARK  241  A    between atoms: _598  and  _599
REMARK  242  A    between atoms: _601  and  _603
REMARK  243  A    between atoms: _603  and  _604
REMARK  244  A    between atoms: _603  and  _606
REMARK  245  A    between atoms: _606  and  _607
REMARK  246  A    between atoms: _613  and  _615
REMARK  247  A    between atoms: _615  and  _616
REMARK  248  A    between atoms: _615  and  _618
REMARK  249  A    between atoms: _618  and  _619
REMARK  250  A    between atoms: _622  and  _624
REMARK  251  A    between atoms: _624  and  _625
REMARK  252  A    between atoms: _624  and  _627
REMARK  253  A    between atoms: _627  and  _628
REMARK  254  A    between atoms: _633  and  _635
REMARK  255  A    between atoms: _635  and  _636
REMARK  256  A    between atoms: _639  and  _641
REMARK  257  A    between atoms: _641  and  _642
REMARK  258  A    between atoms: _641  and  _644
REMARK  259  A    between atoms: _644  and  _645
REMARK  260  A    between atoms: _648  and  _650
REMARK  261  A    between atoms: _650  and  _651
REMARK  262  A    between atoms: _650  and  _653
REMARK  263  A    between atoms: _653  and  _654
REMARK  264  A    between atoms: _654  and  _655
REMARK  265  A    between atoms: _660  and  _662
REMARK  266  A    between atoms: _662  and  _663
REMARK  267  A    between atoms: _662  and  _665
REMARK  268  A    between atoms: _665  and  _666
REMARK                            x       y       z     vdW  Elec       q    Type
REMARK                         _______ _______ _______ _____ _____    ______ ____
ROOT
ATOM      1  O   HOH     1     -33.860  32.672   4.718  0.00  0.00    +0.000 OA
ENDROOT
TORSDOF 0
REMARK  Name = ../refined-set-2016/3d7k/3d7k_pocket.pdb
REMARK  268 active torsions:
REMARK  status: ('A' for Active; 'I' for Inactive)
REMARK    1  A    between atoms: _1  and  _3
REMARK    2  A    between atoms: _3  and  _4
REMARK    3  A    between atoms: _3  and  _6
REMARK    4  A    between atoms: _6  and  _7
REMARK    5  A    between atoms: _10  and  _12
REMARK    6  A    between atoms: _12  and  _13
REMARK    7  A    between atoms: _12  and  _15
REMARK    8  A    between atoms: _15  and  _16
REMARK    9  A    between atoms: _20  and  _21
REMARK   10  A    between atoms: _26  and  _28
REMARK   11  A    between atoms: _28  and  _29
REMARK   12  A    between atoms: _28  and  _31
REMARK   13  A    between atoms: _31  and  _32
REMARK   14  A    between atoms: _35  and  _37
REMARK   15  A    between atoms: _37  and  _38
REMARK   16  A    between atoms: _40  and  _42
REMARK   17  A    between atoms: _42  and  _43
REMARK   18  A    between atoms: _46  and  _48
REMARK   19  A    between atoms: _48  and  _49
REMARK   20  A    between atoms: _48  and  _51
REMARK   21  A    between atoms: _51  and  _52
REMARK   22  A    between atoms: _55  and  _57
REMARK   23  A    between atoms: _57  and  _58
REMARK   24  A    between atoms: _57  and  _60
REMARK   25  A    between atoms: _60  and  _61
REMARK   26  A    between atoms: _64  and  _66
REMARK   27  A    between atoms: _66  and  _67
REMARK   28  A    between atoms: _66  and  _69
REMARK   29  A    between atoms: _69  and  _70
REMARK   30  A    between atoms: _75  and  _76
REMARK   31  A    between atoms: _78  and  _80
REMARK   32  A    between atoms: _80  and  _81
REMARK   33  A    between atoms: _80  and  _83
REMARK   34  A    between atoms: _83  and  _84
REMARK   35  A    between atoms: _87  and  _89
REMARK   36  A    between atoms: _89  and  _90
REMARK   37  A    between atoms: _89  and  _92
REMARK   38  A    between atoms: _92  and  _93
REMARK   39  A    between atoms: _103  and  _105
REMARK   40  A    between atoms: _105  and  _106
REMARK   41  A    between atoms: _105  and  _108
REMARK   42  A    between atoms: _108  and  _109
REMARK   43  A    between atoms: _112  and  _114
REMARK   44  A    between atoms: _114  and  _115
REMARK   45  A    between atoms: _114  and  _117
REMARK   46  A    between atoms: _117  and  _118
REMARK   47  A    between atoms: _123  and  _125
REMARK   48  A    between atoms: _125  and  _126
REMARK   49  A    between atoms: _128  and  _130
REMARK   50  A    between atoms: _130  and  _131
REMARK   51  A    between atoms: _130  and  _133
REMARK   52  A    between atoms: _133  and  _134
REMARK   53  A    between atoms: _139  and  _140
REMARK   54  A    between atoms: _142  and  _144
REMARK   55  A    between atoms: _144  and  _145
REMARK   56  A    between atoms: _144  and  _147
REMARK   57  A    between atoms: _147  and  _148
REMARK   58  A    between atoms: _151  and  _153
REMARK   59  A    between atoms: _153  and  _154
REMARK   60  A    between atoms: _156  and  _158
REMARK   61  A    between atoms: _158  and  _159
REMARK   62  A    between atoms: _158  and  _161
REMARK   63  A    between atoms: _161  and  _162
REMARK   64  A    between atoms: _164  and  _166
REMARK   65  A    between atoms: _166  and  _167
REMARK   66  A    between atoms: _166  and  _169
REMARK   67  A    between atoms: _169  and  _170
REMARK   68  A    between atoms: _170  and  _171
REMARK   69  A    between atoms: _173  and  _175
REMARK   70  A    between atoms: _175  and  _176
REMARK   71  A    between atoms: _178  and  _180
REMARK   72  A    between atoms: _180  and  _181
REMARK   73  A    between atoms: _180  and  _183
REMARK   74  A    between atoms: _186  and  _188
REMARK   75  A    between atoms: _188  and  _189
REMARK   76  A    between atoms: _188  and  _191
REMARK   77  A    between atoms: _191  and  _192
REMARK   78  A    between atoms: _195  and  _197
REMARK   79  A    between atoms: _197  and  _198
REMARK   80  A    between atoms: _200  and  _202
REMARK   81  A    between atoms: _202  and  _203
REMARK   82  A    between atoms: _202  and  _205
REMARK   83  A    between atoms: _205  and  _206
REMARK   84  A    between atoms: _206  and  _207
REMARK   85  A    between atoms: _207  and  CA_676
REMARK   86  A    between atoms: _209  and  _211
REMARK   87  A    between atoms: _211  and  _212
REMARK   88  A    between atoms: _214  and  _216
REMARK   89  A    between atoms: _216  and  _217
REMARK   90  A    between atoms: _216  and  _219
REMARK   91  A    between atoms: _219  and  _220
REMARK   92  A    between atoms: _222  and  _224
REMARK   93  A    between atoms: _224  and  _225
REMARK   94  A    between atoms: _224  and  _227
REMARK   95  A    between atoms: _230  and  _232
REMARK   96  A    between atoms: _232  and  _233
REMARK   97  A    between atoms: _235  and  _237
REMARK   98  A    between atoms: _237  and  _238
REMARK   99  A    between atoms: _237  and  _240
REMARK  100  A    between atoms: _240  and  _241
REMARK  101  A    between atoms: _246  and  _247
REMARK  102  A    between atoms: _249  and  _251
REMARK  103  A    between atoms: _251  and  _252
REMARK  104  A    between atoms: _251  and  _254
REMARK  105  A    between atoms: _254  and  _255
REMARK  106  A    between atoms: _258  and  _260
REMARK  107  A    between atoms: _260  and  _261
REMARK  108  A    between atoms: _260  and  _263
REMARK  109  A    between atoms: _263  and  _264
REMARK  110  A    between atoms: _264  and  _265
REMARK  111  A    between atoms: _267  and  _269
REMARK  112  A    between atoms: _269  and  _270
REMARK  113  A    between atoms: _269  and  _272
REMARK  114  A    between atoms: _272  and  _273
REMARK  115  A    between atoms: _278  and  _280
REMARK  116  A    between atoms: _280  and  _281
REMARK  117  A    between atoms: _280  and  _283
REMARK  118  A    between atoms: _283  and  _284
REMARK  119  A    between atoms: _289  and  _291
REMARK  120  A    between atoms: _291  and  _292
REMARK  121  A    between atoms: _291  and  _294
REMARK  122  A    between atoms: _294  and  _295
REMARK  123  A    between atoms: _295  and  _296
REMARK  124  A    between atoms: _301  and  _303
REMARK  125  A    between atoms: _303  and  _304
REMARK  126  A    between atoms: _303  and  _306
REMARK  127  A    between atoms: _306  and  _307
REMARK  128  A    between atoms: _309  and  _311
REMARK  129  A    between atoms: _311  and  _312
REMARK  130  A    between atoms: _311  and  _314
REMARK  131  A    between atoms: _314  and  _315
REMARK  132  A    between atoms: _325  and  _327
REMARK  133  A    between atoms: _327  and  _328
REMARK  134  A    between atoms: _330  and  _332
REMARK  135  A    between atoms: _332  and  _333
REMARK  136  A    between atoms: _336  and  _338
REMARK  137  A    between atoms: _338  and  _339
REMARK  138  A    between atoms: _338  and  _341
REMARK  139  A    between atoms: _341  and  _342
REMARK  140  A    between atoms: _345  and  _347
REMARK  141  A    between atoms: _347  and  _348
REMARK  142  A    between atoms: _347  and  _350
REMARK  143  A    between atoms: _350  and  _351
REMARK  144  A    between atoms: _354  and  _356
REMARK  145  A    between atoms: _356  and  _357
REMARK  146  A    between atoms: _356  and  _359
REMARK  147  A    between atoms: _359  and  _360
REMARK  148  A    between atoms: _365  and  _367
REMARK  149  A    between atoms: _367  and  _368
REMARK  150  A    between atoms: _367  and  _370
REMARK  151  A    between atoms: _370  and  _371
REMARK  152  A    between atoms: _377  and  _379
REMARK  153  A    between atoms: _379  and  _380
REMARK  154  A    between atoms: _379  and  _382
REMARK  155  A    between atoms: _382  and  _383
REMARK  156  A    between atoms: _383  and  _384
REMARK  157  A    between atoms: _389  and  _391
REMARK  158  A    between atoms: _391  and  _392
REMARK  159  A    between atoms: _394  and  _396
REMARK  160  A    between atoms: _396  and  _397
REMARK  161  A    between atoms: _396  and  _399
REMARK  162  A    between atoms: _399  and  _400
REMARK  163  A    between atoms: _403  and  _405
REMARK  164  A    between atoms: _405  and  _406
REMARK  165  A    between atoms: _405  and  _408
REMARK  166  A    between atoms: _408  and  _409
REMARK  167  A    between atoms: _412  and  _414
REMARK  168  A    between atoms: _414  and  _415
REMARK  169  A    between atoms: _414  and  _417
REMARK  170  A    between atoms: _417  and  _418
REMARK  171  A    between atoms: _423  and  _424
REMARK  172  A    between atoms: _426  and  _428
REMARK  173  A    between atoms: _428  and  _429
REMARK  174  A    between atoms: _428  and  _431
REMARK  175  A    between atoms: _434  and  _436
REMARK  176  A    between atoms: _436  and  _437
REMARK  177  A    between atoms: _440  and  _442
REMARK  178  A    between atoms: _442  and  _443
REMARK  179  A    between atoms: _442  and  _445
REMARK  180  A    between atoms: _445  and  _446
REMARK  181  A    between atoms: _449  and  _451
REMARK  182  A    between atoms: _451  and  _452
REMARK  183  A    between atoms: _451  and  _454
REMARK  184  A    between atoms: _454  and  _455
REMARK  185  A    between atoms: _455  and  _456
REMARK  186  A    between atoms: _459  and  _461
REMARK  187  A    between atoms: _461  and  _462
REMARK  188  A    between atoms: _461  and  _464
REMARK  189  A    between atoms: _464  and  _465
REMARK  190  A    between atoms: _468  and  _470
REMARK  191  A    between atoms: _470  and  _471
REMARK  192  A    between atoms: _470  and  _473
REMARK  193  A    between atoms: _473  and  _474
REMARK  194  A    between atoms: _479  and  _481
REMARK  195  A    between atoms: _481  and  _482
REMARK  196  A    between atoms: _484  and  _486
REMARK  197  A    between atoms: _486  and  _487
REMARK  198  A    between atoms: _490  and  _492
REMARK  199  A    between atoms: _492  and  _493
REMARK  200  A    between atoms: _492  and  _495
REMARK  201  A    between atoms: _495  and  _496
REMARK  202  A    between atoms: _501  and  _503
REMARK  203  A    between atoms: _503  and  _504
REMARK  204  A    between atoms: _503  and  _506
REMARK  205  A    between atoms: _506  and  _507
REMARK  206  A    between atoms: _510  and  _512
REMARK  207  A    between atoms: _512  and  _513
REMARK  208  A    between atoms: _512  and  _515
REMARK  209  A    between atoms: _515  and  _516
REMARK  210  A    between atoms: _519  and  _521
REMARK  211  A    between atoms: _521  and  _522
REMARK  212  A    between atoms: _521  and  _524
REMARK  213  A    between atoms: _524  and  _525
REMARK  214  A    between atoms: _525  and  _526
REMARK  215  A    between atoms: _526  and  _527
REMARK  216  A    between atoms: _536  and  _538
REMARK  217  A    between atoms: _538  and  _539
REMARK  218  A    between atoms: _538  and  _541
REMARK  219  A    between atoms: _541  and  _542
REMARK  220  A    between atoms: _547  and  _549
REMARK  221  A    between atoms: _549  and  _550
REMARK  222  A    between atoms: _549  and  _552
REMARK  223  A    between atoms: _552  and  _553
REMARK  224  A    between atoms: _553  and  _554
REMARK  225  A    between atoms: _557  and  _559
REMARK  226  A    between atoms: _559  and  _560
REMARK  227  A    between atoms: _563  and  _565
REMARK  228  A    between atoms: _565  and  _566
REMARK  229  A    between atoms: _565  and  _568
REMARK  230  A    between atoms: _571  and  _573
REMARK  231  A    between atoms: _573  and  _574
REMARK  232  A    between atoms: _573  and  _576
REMARK  233  A    between atoms: _576  and  _577
REMARK  234  A    between atoms: _580  and  _582
REMARK  235  A    between atoms: _582  and  _583
REMARK  236  A    between atoms: _586  and  _588
REMARK  237  A    between atoms: _588  and  _589
REMARK  238  A    between atoms: _591  and  _593
REMARK  239  A    between atoms: _593  and  _594
REMARK  240  A    between atoms: _596  and  _598
REMARK  241  A    between atoms: _598  and  _599
REMARK  242  A    between atoms: _601  and  _603
REMARK  243  A    between atoms: _603  and  _604
REMARK  244  A    between atoms: _603  and  _606
REMARK  245  A    between atoms: _606  and  _607
REMARK  246  A    between atoms: _613  and  _615
REMARK  247  A    between atoms: _615  and  _616
REMARK  248  A    between atoms: _615  and  _618
REMARK  249  A    between atoms: _618  and  _619
REMARK  250  A    between atoms: _622  and  _624
REMARK  251  A    between atoms: _624  and  _625
REMARK  252  A    between atoms: _624  and  _627
REMARK  253  A    between atoms: _627  and  _628
REMARK  254  A    between atoms: _633  and  _635
REMARK  255  A    between atoms: _635  and  _636
REMARK  256  A    between atoms: _639  and  _641
REMARK  257  A    between atoms: _641  and  _642
REMARK  258  A    between atoms: _641  and  _644
REMARK  259  A    between atoms: _644  and  _645
REMARK  260  A    between atoms: _648  and  _650
REMARK  261  A    between atoms: _650  and  _651
REMARK  262  A    between atoms: _650  and  _653
REMARK  263  A    between atoms: _653  and  _654
REMARK  264  A    between atoms: _654  and  _655
REMARK  265  A    between atoms: _660  and  _662
REMARK  266  A    between atoms: _662  and  _663
REMARK  267  A    between atoms: _662  and  _665
REMARK  268  A    between atoms: _665  and  _666
REMARK                            x       y       z     vdW  Elec       q    Type
REMARK                         _______ _______ _______ _____ _____    ______ ____
ROOT
ATOM      1  O   HOH     1     -44.069  15.601   1.929  0.00  0.00    +0.000 OA
ENDROOT
TORSDOF 0
REMARK  Name = ../refined-set-2016/3d7k/3d7k_pocket.pdb
REMARK  268 active torsions:
REMARK  status: ('A' for Active; 'I' for Inactive)
REMARK    1  A    between atoms: _1  and  _3
REMARK    2  A    between atoms: _3  and  _4
REMARK    3  A    between atoms: _3  and  _6
REMARK    4  A    between atoms: _6  and  _7
REMARK    5  A    between atoms: _10  and  _12
REMARK    6  A    between atoms: _12  and  _13
REMARK    7  A    between atoms: _12  and  _15
REMARK    8  A    between atoms: _15  and  _16
REMARK    9  A    between atoms: _20  and  _21
REMARK   10  A    between atoms: _26  and  _28
REMARK   11  A    between atoms: _28  and  _29
REMARK   12  A    between atoms: _28  and  _31
REMARK   13  A    between atoms: _31  and  _32
REMARK   14  A    between atoms: _35  and  _37
REMARK   15  A    between atoms: _37  and  _38
REMARK   16  A    between atoms: _40  and  _42
REMARK   17  A    between atoms: _42  and  _43
REMARK   18  A    between atoms: _46  and  _48
REMARK   19  A    between atoms: _48  and  _49
REMARK   20  A    between atoms: _48  and  _51
REMARK   21  A    between atoms: _51  and  _52
REMARK   22  A    between atoms: _55  and  _57
REMARK   23  A    between atoms: _57  and  _58
REMARK   24  A    between atoms: _57  and  _60
REMARK   25  A    between atoms: _60  and  _61
REMARK   26  A    between atoms: _64  and  _66
REMARK   27  A    between atoms: _66  and  _67
REMARK   28  A    between atoms: _66  and  _69
REMARK   29  A    between atoms: _69  and  _70
REMARK   30  A    between atoms: _75  and  _76
REMARK   31  A    between atoms: _78  and  _80
REMARK   32  A    between atoms: _80  and  _81
REMARK   33  A    between atoms: _80  and  _83
REMARK   34  A    between atoms: _83  and  _84
REMARK   35  A    between atoms: _87  and  _89
REMARK   36  A    between atoms: _89  and  _90
REMARK   37  A    between atoms: _89  and  _92
REMARK   38  A    between atoms: _92  and  _93
REMARK   39  A    between atoms: _103  and  _105
REMARK   40  A    between atoms: _105  and  _106
REMARK   41  A    between atoms: _105  and  _108
REMARK   42  A    between atoms: _108  and  _109
REMARK   43  A    between atoms: _112  and  _114
REMARK   44  A    between atoms: _114  and  _115
REMARK   45  A    between atoms: _114  and  _117
REMARK   46  A    between atoms: _117  and  _118
REMARK   47  A    between atoms: _123  and  _125
REMARK   48  A    between atoms: _125  and  _126
REMARK   49  A    between atoms: _128  and  _130
REMARK   50  A    between atoms: _130  and  _131
REMARK   51  A    between atoms: _130  and  _133
REMARK   52  A    between atoms: _133  and  _134
REMARK   53  A    between atoms: _139  and  _140
REMARK   54  A    between atoms: _142  and  _144
REMARK   55  A    between atoms: _144  and  _145
REMARK   56  A    between atoms: _144  and  _147
REMARK   57  A    between atoms: _147  and  _148
REMARK   58  A    between atoms: _151  and  _153
REMARK   59  A    between atoms: _153  and  _154
REMARK   60  A    between atoms: _156  and  _158
REMARK   61  A    between atoms: _158  and  _159
REMARK   62  A    between atoms: _158  and  _161
REMARK   63  A    between atoms: _161  and  _162
REMARK   64  A    between atoms: _164  and  _166
REMARK   65  A    between atoms: _166  and  _167
REMARK   66  A    between atoms: _166  and  _169
REMARK   67  A    between atoms: _169  and  _170
REMARK   68  A    between atoms: _170  and  _171
REMARK   69  A    between atoms: _173  and  _175
REMARK   70  A    between atoms: _175  and  _176
REMARK   71  A    between atoms: _178  and  _180
REMARK   72  A    between atoms: _180  and  _181
REMARK   73  A    between atoms: _180  and  _183
REMARK   74  A    between atoms: _186  and  _188
REMARK   75  A    between atoms: _188  and  _189
REMARK   76  A    between atoms: _188  and  _191
REMARK   77  A    between atoms: _191  and  _192
REMARK   78  A    between atoms: _195  and  _197
REMARK   79  A    between atoms: _197  and  _198
REMARK   80  A    between atoms: _200  and  _202
REMARK   81  A    between atoms: _202  and  _203
REMARK   82  A    between atoms: _202  and  _205
REMARK   83  A    between atoms: _205  and  _206
REMARK   84  A    between atoms: _206  and  _207
REMARK   85  A    between atoms: _207  and  CA_676
REMARK   86  A    between atoms: _209  and  _211
REMARK   87  A    between atoms: _211  and  _212
REMARK   88  A    between atoms: _214  and  _216
REMARK   89  A    between atoms: _216  and  _217
REMARK   90  A    between atoms: _216  and  _219
REMARK   91  A    between atoms: _219  and  _220
REMARK   92  A    between atoms: _222  and  _224
REMARK   93  A    between atoms: _224  and  _225
REMARK   94  A    between atoms: _224  and  _227
REMARK   95  A    between atoms: _230  and  _232
REMARK   96  A    between atoms: _232  and  _233
REMARK   97  A    between atoms: _235  and  _237
REMARK   98  A    between atoms: _237  and  _238
REMARK   99  A    between atoms: _237  and  _240
REMARK  100  A    between atoms: _240  and  _241
REMARK  101  A    between atoms: _246  and  _247
REMARK  102  A    between atoms: _249  and  _251
REMARK  103  A    between atoms: _251  and  _252
REMARK  104  A    between atoms: _251  and  _254
REMARK  105  A    between atoms: _254  and  _255
REMARK  106  A    between atoms: _258  and  _260
REMARK  107  A    between atoms: _260  and  _261
REMARK  108  A    between atoms: _260  and  _263
REMARK  109  A    between atoms: _263  and  _264
REMARK  110  A    between atoms: _264  and  _265
REMARK  111  A    between atoms: _267  and  _269
REMARK  112  A    between atoms: _269  and  _270
REMARK  113  A    between atoms: _269  and  _272
REMARK  114  A    between atoms: _272  and  _273
REMARK  115  A    between atoms: _278  and  _280
REMARK  116  A    between atoms: _280  and  _281
REMARK  117  A    between atoms: _280  and  _283
REMARK  118  A    between atoms: _283  and  _284
REMARK  119  A    between atoms: _289  and  _291
REMARK  120  A    between atoms: _291  and  _292
REMARK  121  A    between atoms: _291  and  _294
REMARK  122  A    between atoms: _294  and  _295
REMARK  123  A    between atoms: _295  and  _296
REMARK  124  A    between atoms: _301  and  _303
REMARK  125  A    between atoms: _303  and  _304
REMARK  126  A    between atoms: _303  and  _306
REMARK  127  A    between atoms: _306  and  _307
REMARK  128  A    between atoms: _309  and  _311
REMARK  129  A    between atoms: _311  and  _312
REMARK  130  A    between atoms: _311  and  _314
REMARK  131  A    between atoms: _314  and  _315
REMARK  132  A    between atoms: _325  and  _327
REMARK  133  A    between atoms: _327  and  _328
REMARK  134  A    between atoms: _330  and  _332
REMARK  135  A    between atoms: _332  and  _333
REMARK  136  A    between atoms: _336  and  _338
REMARK  137  A    between atoms: _338  and  _339
REMARK  138  A    between atoms: _338  and  _341
REMARK  139  A    between atoms: _341  and  _342
REMARK  140  A    between atoms: _345  and  _347
REMARK  141  A    between atoms: _347  and  _348
REMARK  142  A    between atoms: _347  and  _350
REMARK  143  A    between atoms: _350  and  _351
REMARK  144  A    between atoms: _354  and  _356
REMARK  145  A    between atoms: _356  and  _357
REMARK  146  A    between atoms: _356  and  _359
REMARK  147  A    between atoms: _359  and  _360
REMARK  148  A    between atoms: _365  and  _367
REMARK  149  A    between atoms: _367  and  _368
REMARK  150  A    between atoms: _367  and  _370
REMARK  151  A    between atoms: _370  and  _371
REMARK  152  A    between atoms: _377  and  _379
REMARK  153  A    between atoms: _379  and  _380
REMARK  154  A    between atoms: _379  and  _382
REMARK  155  A    between atoms: _382  and  _383
REMARK  156  A    between atoms: _383  and  _384
REMARK  157  A    between atoms: _389  and  _391
REMARK  158  A    between atoms: _391  and  _392
REMARK  159  A    between atoms: _394  and  _396
REMARK  160  A    between atoms: _396  and  _397
REMARK  161  A    between atoms: _396  and  _399
REMARK  162  A    between atoms: _399  and  _400
REMARK  163  A    between atoms: _403  and  _405
REMARK  164  A    between atoms: _405  and  _406
REMARK  165  A    between atoms: _405  and  _408
REMARK  166  A    between atoms: _408  and  _409
REMARK  167  A    between atoms: _412  and  _414
REMARK  168  A    between atoms: _414  and  _415
REMARK  169  A    between atoms: _414  and  _417
REMARK  170  A    between atoms: _417  and  _418
REMARK  171  A    between atoms: _423  and  _424
REMARK  172  A    between atoms: _426  and  _428
REMARK  173  A    between atoms: _428  and  _429
REMARK  174  A    between atoms: _428  and  _431
REMARK  175  A    between atoms: _434  and  _436
REMARK  176  A    between atoms: _436  and  _437
REMARK  177  A    between atoms: _440  and  _442
REMARK  178  A    between atoms: _442  and  _443
REMARK  179  A    between atoms: _442  and  _445
REMARK  180  A    between atoms: _445  and  _446
REMARK  181  A    between atoms: _449  and  _451
REMARK  182  A    between atoms: _451  and  _452
REMARK  183  A    between atoms: _451  and  _454
REMARK  184  A    between atoms: _454  and  _455
REMARK  185  A    between atoms: _455  and  _456
REMARK  186  A    between atoms: _459  and  _461
REMARK  187  A    between atoms: _461  and  _462
REMARK  188  A    between atoms: _461  and  _464
REMARK  189  A    between atoms: _464  and  _465
REMARK  190  A    between atoms: _468  and  _470
REMARK  191  A    between atoms: _470  and  _471
REMARK  192  A    between atoms: _470  and  _473
REMARK  193  A    between atoms: _473  and  _474
REMARK  194  A    between atoms: _479  and  _481
REMARK  195  A    between atoms: _481  and  _482
REMARK  196  A    between atoms: _484  and  _486
REMARK  197  A    between atoms: _486  and  _487
REMARK  198  A    between atoms: _490  and  _492
REMARK  199  A    between atoms: _492  and  _493
REMARK  200  A    between atoms: _492  and  _495
REMARK  201  A    between atoms: _495  and  _496
REMARK  202  A    between atoms: _501  and  _503
REMARK  203  A    between atoms: _503  and  _504
REMARK  204  A    between atoms: _503  and  _506
REMARK  205  A    between atoms: _506  and  _507
REMARK  206  A    between atoms: _510  and  _512
REMARK  207  A    between atoms: _512  and  _513
REMARK  208  A    between atoms: _512  and  _515
REMARK  209  A    between atoms: _515  and  _516
REMARK  210  A    between atoms: _519  and  _521
REMARK  211  A    between atoms: _521  and  _522
REMARK  212  A    between atoms: _521  and  _524
REMARK  213  A    between atoms: _524  and  _525
REMARK  214  A    between atoms: _525  and  _526
REMARK  215  A    between atoms: _526  and  _527
REMARK  216  A    between atoms: _536  and  _538
REMARK  217  A    between atoms: _538  and  _539
REMARK  218  A    between atoms: _538  and  _541
REMARK  219  A    between atoms: _541  and  _542
REMARK  220  A    between atoms: _547  and  _549
REMARK  221  A    between atoms: _549  and  _550
REMARK  222  A    between atoms: _549  and  _552
REMARK  223  A    between atoms: _552  and  _553
REMARK  224  A    between atoms: _553  and  _554
REMARK  225  A    between atoms: _557  and  _559
REMARK  226  A    between atoms: _559  and  _560
REMARK  227  A    between atoms: _563  and  _565
REMARK  228  A    between atoms: _565  and  _566
REMARK  229  A    between atoms: _565  and  _568
REMARK  230  A    between atoms: _571  and  _573
REMARK  231  A    between atoms: _573  and  _574
REMARK  232  A    between atoms: _573  and  _576
REMARK  233  A    between atoms: _576  and  _577
REMARK  234  A    between atoms: _580  and  _582
REMARK  235  A    between atoms: _582  and  _583
REMARK  236  A    between atoms: _586  and  _588
REMARK  237  A    between atoms: _588  and  _589
REMARK  238  A    between atoms: _591  and  _593
REMARK  239  A    between atoms: _593  and  _594
REMARK  240  A    between atoms: _596  and  _598
REMARK  241  A    between atoms: _598  and  _599
REMARK  242  A    between atoms: _601  and  _603
REMARK  243  A    between atoms: _603  and  _604
REMARK  244  A    between atoms: _603  and  _606
REMARK  245  A    between atoms: _606  and  _607
REMARK  246  A    between atoms: _613  and  _615
REMARK  247  A    between atoms: _615  and  _616
REMARK  248  A    between atoms: _615  and  _618
REMARK  249  A    between atoms: _618  and  _619
REMARK  250  A    between atoms: _622  and  _624
REMARK  251  A    between atoms: _624  and  _625
REMARK  252  A    between atoms: _624  and  _627
REMARK  253  A    between atoms: _627  and  _628
REMARK  254  A    between atoms: _633  and  _635
REMARK  255  A    between atoms: _635  and  _636
REMARK  256  A    between atoms: _639  and  _641
REMARK  257  A    between atoms: _641  and  _642
REMARK  258  A    between atoms: _641  and  _644
REMARK  259  A    between atoms: _644  and  _645
REMARK  260  A    between atoms: _648  and  _650
REMARK  261  A    between atoms: _650  and  _651
REMARK  262  A    between atoms: _650  and  _653
REMARK  263  A    between atoms: _653  and  _654
REMARK  264  A    between atoms: _654  and  _655
REMARK  265  A    between atoms: _660  and  _662
REMARK  266  A    between atoms: _662  and  _663
REMARK  267  A    between atoms: _662  and  _665
REMARK  268  A    between atoms: _665  and  _666
REMARK                            x       y       z     vdW  Elec       q    Type
REMARK                         _______ _______ _______ _____ _____    ______ ____
ROOT
ATOM      1  O   HOH     1     -39.531  16.399   6.864  0.00  0.00    +0.000 OA
ENDROOT
TORSDOF 0
