REMARK  Name = ../refined-set-2016/4agq/4agq_pocket.pdb
REMARK  106 active torsions:
REMARK  status: ('A' for Active; 'I' for Inactive)
REMARK    1  A    between atoms: _1  and  _3
REMARK    2  A    between atoms: _3  and  _4
REMARK    3  A    between atoms: _3  and  _6
REMARK    4  A    between atoms: _6  and  _7
REMARK    5  A    between atoms: _12  and  _13
REMARK    6  A    between atoms: _15  and  _17
REMARK    7  A    between atoms: _17  and  _18
REMARK    8  A    between atoms: _17  and  _20
REMARK    9  A    between atoms: _20  and  _21
REMARK   10  A    between atoms: _27  and  _29
REMARK   11  A    between atoms: _29  and  _30
REMARK   12  A    between atoms: _29  and  _32
REMARK   13  A    between atoms: _32  and  _33
REMARK   14  A    between atoms: _33  and  _34
REMARK   15  A    between atoms: _34  and  _35
REMARK   16  A    between atoms: _44  and  _46
REMARK   17  A    between atoms: _46  and  _47
REMARK   18  A    between atoms: _46  and  _49
REMARK   19  A    between atoms: _49  and  _50
REMARK   20  A    between atoms: _50  and  _51
REMARK   21  A    between atoms: _56  and  _58
REMARK   22  A    between atoms: _58  and  _59
REMARK   23  A    between atoms: _58  and  _61
REMARK   24  A    between atoms: _61  and  _62
REMARK   25  A    between atoms: _65  and  _67
REMARK   26  A    between atoms: _67  and  _68
REMARK   27  A    between atoms: _67  and  _70
REMARK   28  A    between atoms: _70  and  _71
REMARK   29  A    between atoms: _81  and  _83
REMARK   30  A    between atoms: _83  and  _84
REMARK   31  A    between atoms: _83  and  _86
REMARK   32  A    between atoms: _89  and  _91
REMARK   33  A    between atoms: _91  and  _92
REMARK   34  A    between atoms: _91  and  _94
REMARK   35  A    between atoms: _94  and  _95
REMARK   36  A    between atoms: _98  and  _100
REMARK   37  A    between atoms: _100  and  _101
REMARK   38  A    between atoms: _100  and  _103
REMARK   39  A    between atoms: _103  and  _104
REMARK   40  A    between atoms: _106  and  _108
REMARK   41  A    between atoms: _108  and  _109
REMARK   42  A    between atoms: _108  and  _111
REMARK   43  A    between atoms: _111  and  _112
REMARK   44  A    between atoms: _116  and  _117
REMARK   45  A    between atoms: _123  and  _124
REMARK   46  A    between atoms: _130  and  _131
REMARK   47  A    between atoms: _136  and  _138
REMARK   48  A    between atoms: _138  and  _139
REMARK   49  A    between atoms: _141  and  _143
REMARK   50  A    between atoms: _143  and  _144
REMARK   51  A    between atoms: _143  and  _146
REMARK   52  A    between atoms: _146  and  _147
REMARK   53  A    between atoms: _150  and  _152
REMARK   54  A    between atoms: _152  and  _153
REMARK   55  A    between atoms: _152  and  _155
REMARK   56  A    between atoms: _155  and  _156
REMARK   57  A    between atoms: _156  and  _157
REMARK   58  A    between atoms: _157  and  _158
REMARK   59  A    between atoms: _167  and  _169
REMARK   60  A    between atoms: _169  and  _170
REMARK   61  A    between atoms: _169  and  _172
REMARK   62  A    between atoms: _175  and  _177
REMARK   63  A    between atoms: _177  and  _178
REMARK   64  A    between atoms: _177  and  _180
REMARK   65  A    between atoms: _180  and  _181
REMARK   66  A    between atoms: _181  and  _182
REMARK   67  A    between atoms: _182  and  _183
REMARK   68  A    between atoms: _193  and  _194
REMARK   69  A    between atoms: _199  and  _201
REMARK   70  A    between atoms: _201  and  _202
REMARK   71  A    between atoms: _201  and  _204
REMARK   72  A    between atoms: _206  and  _208
REMARK   73  A    between atoms: _208  and  _209
REMARK   74  A    between atoms: _208  and  _211
REMARK   75  A    between atoms: _211  and  _212
REMARK   76  A    between atoms: _212  and  _213
REMARK   77  A    between atoms: _217  and  _218
REMARK   78  A    between atoms: _224  and  _225
REMARK   79  A    between atoms: _230  and  _232
REMARK   80  A    between atoms: _232  and  _233
REMARK   81  A    between atoms: _232  and  _235
REMARK   82  A    between atoms: _235  and  _236
REMARK   83  A    between atoms: _236  and  _237
REMARK   84  A    between atoms: _240  and  _242
REMARK   85  A    between atoms: _242  and  _243
REMARK   86  A    between atoms: _242  and  _245
REMARK   87  A    between atoms: _245  and  _246
REMARK   88  A    between atoms: _248  and  _250
REMARK   89  A    between atoms: _250  and  _251
REMARK   90  A    between atoms: _250  and  _253
REMARK   91  A    between atoms: _253  and  _254
REMARK   92  A    between atoms: _257  and  _259
REMARK   93  A    between atoms: _259  and  _260
REMARK   94  A    between atoms: _259  and  _262
REMARK   95  A    between atoms: _264  and  _266
REMARK   96  A    between atoms: _266  and  _267
REMARK   97  A    between atoms: _266  and  _269
REMARK   98  A    between atoms: _269  and  _270
REMARK   99  A    between atoms: _273  and  _275
REMARK  100  A    between atoms: _275  and  _276
REMARK  101  A    between atoms: _275  and  _278
REMARK  102  A    between atoms: _278  and  _279
REMARK  103  A    between atoms: _282  and  _284
REMARK  104  A    between atoms: _284  and  _285
REMARK  105  A    between atoms: _284  and  _287
REMARK  106  A    between atoms: _287  and  _288
REMARK                            x       y       z     vdW  Elec       q    Type
REMARK                         _______ _______ _______ _____ _____    ______ ____
ROOT
ATOM      1  CG  TYR A   1      99.680  95.079 -47.103  0.00  0.00    -0.020 A 
ATOM      2  CD2 TYR A   1     100.472  93.966 -47.359  0.00  0.00    -0.001 A 
ATOM      3  CE2 TYR A   1     100.665  93.518 -48.668  0.00  0.00    +0.036 A 
ATOM      4  CZ  TYR A   1     100.077  94.201 -49.708  0.00  0.00    +0.134 A 
ATOM      5  CE1 TYR A   1      99.304  95.309 -49.468  0.00  0.00    +0.036 A 
ATOM      6  CD1 TYR A   1      99.117  95.746 -48.176  0.00  0.00    -0.001 A 
ENDROOT
BRANCH   4   7
ATOM      7  OH  TYR A   1     100.254  93.779 -51.011  0.00  0.00    -0.506 OA
ATOM      8  HH  TYR A   1      99.763  94.384 -51.622  0.00  0.00    +0.292 HD
ENDBRANCH   4   7
BRANCH   1   9
ATOM      9  CB  TYR A   1      99.497  95.598 -45.704  0.00  0.00    +0.051 C 
BRANCH   9  10
ATOM     10  CA  TYR A   1     100.325  96.885 -45.515  0.00  0.00    +0.137 C 
BRANCH  10  11
ATOM     11  N   TYR A   1     101.729  96.631 -45.791  0.00  0.00    -0.239 NA
ATOM     12  H   TYR A   1     102.185  95.794 -45.375  0.00  0.00    +0.142 HD
ENDBRANCH  10  11
BRANCH  10  13
ATOM     13  C   TYR A   1     100.095  97.517 -44.146  0.00  0.00    +0.224 C 
ATOM     14  O   TYR A   1      98.953  97.784 -43.789  0.00  0.00    -0.287 OA
ENDBRANCH  10  13
ENDBRANCH   9  10
ENDBRANCH   1   9
TORSDOF 5
REMARK  Name = ../refined-set-2016/4agq/4agq_pocket.pdb
REMARK  106 active torsions:
REMARK  status: ('A' for Active; 'I' for Inactive)
REMARK    1  A    between atoms: _1  and  _3
REMARK    2  A    between atoms: _3  and  _4
REMARK    3  A    between atoms: _3  and  _6
REMARK    4  A    between atoms: _6  and  _7
REMARK    5  A    between atoms: _12  and  _13
REMARK    6  A    between atoms: _15  and  _17
REMARK    7  A    between atoms: _17  and  _18
REMARK    8  A    between atoms: _17  and  _20
REMARK    9  A    between atoms: _20  and  _21
REMARK   10  A    between atoms: _27  and  _29
REMARK   11  A    between atoms: _29  and  _30
REMARK   12  A    between atoms: _29  and  _32
REMARK   13  A    between atoms: _32  and  _33
REMARK   14  A    between atoms: _33  and  _34
REMARK   15  A    between atoms: _34  and  _35
REMARK   16  A    between atoms: _44  and  _46
REMARK   17  A    between atoms: _46  and  _47
REMARK   18  A    between atoms: _46  and  _49
REMARK   19  A    between atoms: _49  and  _50
REMARK   20  A    between atoms: _50  and  _51
REMARK   21  A    between atoms: _56  and  _58
REMARK   22  A    between atoms: _58  and  _59
REMARK   23  A    between atoms: _58  and  _61
REMARK   24  A    between atoms: _61  and  _62
REMARK   25  A    between atoms: _65  and  _67
REMARK   26  A    between atoms: _67  and  _68
REMARK   27  A    between atoms: _67  and  _70
REMARK   28  A    between atoms: _70  and  _71
REMARK   29  A    between atoms: _81  and  _83
REMARK   30  A    between atoms: _83  and  _84
REMARK   31  A    between atoms: _83  and  _86
REMARK   32  A    between atoms: _89  and  _91
REMARK   33  A    between atoms: _91  and  _92
REMARK   34  A    between atoms: _91  and  _94
REMARK   35  A    between atoms: _94  and  _95
REMARK   36  A    between atoms: _98  and  _100
REMARK   37  A    between atoms: _100  and  _101
REMARK   38  A    between atoms: _100  and  _103
REMARK   39  A    between atoms: _103  and  _104
REMARK   40  A    between atoms: _106  and  _108
REMARK   41  A    between atoms: _108  and  _109
REMARK   42  A    between atoms: _108  and  _111
REMARK   43  A    between atoms: _111  and  _112
REMARK   44  A    between atoms: _116  and  _117
REMARK   45  A    between atoms: _123  and  _124
REMARK   46  A    between atoms: _130  and  _131
REMARK   47  A    between atoms: _136  and  _138
REMARK   48  A    between atoms: _138  and  _139
REMARK   49  A    between atoms: _141  and  _143
REMARK   50  A    between atoms: _143  and  _144
REMARK   51  A    between atoms: _143  and  _146
REMARK   52  A    between atoms: _146  and  _147
REMARK   53  A    between atoms: _150  and  _152
REMARK   54  A    between atoms: _152  and  _153
REMARK   55  A    between atoms: _152  and  _155
REMARK   56  A    between atoms: _155  and  _156
REMARK   57  A    between atoms: _156  and  _157
REMARK   58  A    between atoms: _157  and  _158
REMARK   59  A    between atoms: _167  and  _169
REMARK   60  A    between atoms: _169  and  _170
REMARK   61  A    between atoms: _169  and  _172
REMARK   62  A    between atoms: _175  and  _177
REMARK   63  A    between atoms: _177  and  _178
REMARK   64  A    between atoms: _177  and  _180
REMARK   65  A    between atoms: _180  and  _181
REMARK   66  A    between atoms: _181  and  _182
REMARK   67  A    between atoms: _182  and  _183
REMARK   68  A    between atoms: _193  and  _194
REMARK   69  A    between atoms: _199  and  _201
REMARK   70  A    between atoms: _201  and  _202
REMARK   71  A    between atoms: _201  and  _204
REMARK   72  A    between atoms: _206  and  _208
REMARK   73  A    between atoms: _208  and  _209
REMARK   74  A    between atoms: _208  and  _211
REMARK   75  A    between atoms: _211  and  _212
REMARK   76  A    between atoms: _212  and  _213
REMARK   77  A    between atoms: _217  and  _218
REMARK   78  A    between atoms: _224  and  _225
REMARK   79  A    between atoms: _230  and  _232
REMARK   80  A    between atoms: _232  and  _233
REMARK   81  A    between atoms: _232  and  _235
REMARK   82  A    between atoms: _235  and  _236
REMARK   83  A    between atoms: _236  and  _237
REMARK   84  A    between atoms: _240  and  _242
REMARK   85  A    between atoms: _242  and  _243
REMARK   86  A    between atoms: _242  and  _245
REMARK   87  A    between atoms: _245  and  _246
REMARK   88  A    between atoms: _248  and  _250
REMARK   89  A    between atoms: _250  and  _251
REMARK   90  A    between atoms: _250  and  _253
REMARK   91  A    between atoms: _253  and  _254
REMARK   92  A    between atoms: _257  and  _259
REMARK   93  A    between atoms: _259  and  _260
REMARK   94  A    between atoms: _259  and  _262
REMARK   95  A    between atoms: _264  and  _266
REMARK   96  A    between atoms: _266  and  _267
REMARK   97  A    between atoms: _266  and  _269
REMARK   98  A    between atoms: _269  and  _270
REMARK   99  A    between atoms: _273  and  _275
REMARK  100  A    between atoms: _275  and  _276
REMARK  101  A    between atoms: _275  and  _278
REMARK  102  A    between atoms: _278  and  _279
REMARK  103  A    between atoms: _282  and  _284
REMARK  104  A    between atoms: _284  and  _285
REMARK  105  A    between atoms: _284  and  _287
REMARK  106  A    between atoms: _287  and  _288
REMARK                            x       y       z     vdW  Elec       q    Type
REMARK                         _______ _______ _______ _____ _____    ______ ____
ROOT
ATOM      1  CA  ARG A   2      99.646  95.252 -36.471  0.00  0.00    +0.137 C 
ENDROOT
BRANCH   1   3
ATOM      2  C   PHE A   1     100.381  95.327 -38.786  0.00  0.00    +0.239 C 
ATOM      3  N   ARG A   2      99.383  95.340 -37.906  0.00  0.00    -0.298 N 
ATOM      4  H   ARG A   2      98.402  95.414 -38.244  0.00  0.00    +0.150 HD
ATOM      5  O   PHE A   1     101.562  95.386 -38.447  0.00  0.00    -0.274 OA
BRANCH   2   6
ATOM      6  CA  PHE A   1      99.994  95.221 -40.256  0.00  0.00    +0.149 C 
BRANCH   6   7
ATOM      7  N   PHE A   1     100.668  96.221 -41.087  0.00  0.00    -0.238 NA
ATOM      8  H   PHE A   1     101.464  95.918 -41.684  0.00  0.00    +0.142 HD
ENDBRANCH   6   7
BRANCH   6   9
ATOM      9  CB  PHE A   1     100.362  93.827 -40.768  0.00  0.00    +0.053 C 
BRANCH   9  10
ATOM     10  CG  PHE A   1      99.822  92.698 -39.936  0.00  0.00    -0.020 A 
ATOM     11  CD2 PHE A   1     100.668  91.928 -39.139  0.00  0.00    -0.004 A 
ATOM     12  CE2 PHE A   1     100.165  90.874 -38.371  0.00  0.00    -0.000 A 
ATOM     13  CZ  PHE A   1      98.814  90.588 -38.409  0.00  0.00    -0.000 A 
ATOM     14  CE1 PHE A   1      97.966  91.345 -39.206  0.00  0.00    -0.000 A 
ATOM     15  CD1 PHE A   1      98.474  92.400 -39.960  0.00  0.00    -0.004 A 
ENDBRANCH   9  10
ENDBRANCH   6   9
ENDBRANCH   2   6
ENDBRANCH   1   3
BRANCH   1  16
ATOM     16  C   ARG A   2      98.405  94.752 -35.744  0.00  0.00    +0.227 C 
ATOM     17  O   ARG A   2      97.292  94.826 -36.266  0.00  0.00    -0.286 OA
ENDBRANCH   1  16
BRANCH   1  18
ATOM     18  CB  ARG A   2     100.115  96.599 -35.879  0.00  0.00    +0.031 C 
BRANCH  18  19
ATOM     19  CG  ARG A   2      99.034  97.680 -35.764  0.00  0.00    +0.045 C 
BRANCH  19  20
ATOM     20  CD  ARG A   2      98.820  98.401 -37.074  0.00  0.00    +0.174 C 
BRANCH  20  21
ATOM     21  NE  ARG A   2      97.869  99.506 -36.937  0.00  0.00    -0.265 N 
ATOM     22  HE  ARG A   2      97.516  99.735 -35.986  0.00  0.00    +0.259 HD
ATOM     23  CZ  ARG A   2      97.432 100.232 -37.958  0.00  0.00    +0.342 C 
ATOM     24  NH2 ARG A   2      96.569 101.217 -37.748  0.00  0.00    -0.292 N 
ATOM     25 HH21 ARG A   2      96.236 101.420 -36.784  0.00  0.00    +0.255 HD
ATOM     26 HH22 ARG A   2      96.226 101.787 -38.547  0.00  0.00    +0.255 HD
ATOM     27  NH1 ARG A   2      97.862  99.981 -39.189  0.00  0.00    -0.292 N 
ATOM     28 HH11 ARG A   2      98.544  99.213 -39.355  0.00  0.00    +0.255 HD
ATOM     29 HH12 ARG A   2      97.517 100.552 -39.987  0.00  0.00    +0.255 HD
ENDBRANCH  20  21
ENDBRANCH  19  20
ENDBRANCH  18  19
ENDBRANCH   1  18
TORSDOF 10
REMARK  Name = ../refined-set-2016/4agq/4agq_pocket.pdb
REMARK  106 active torsions:
REMARK  status: ('A' for Active; 'I' for Inactive)
REMARK    1  A    between atoms: _1  and  _3
REMARK    2  A    between atoms: _3  and  _4
REMARK    3  A    between atoms: _3  and  _6
REMARK    4  A    between atoms: _6  and  _7
REMARK    5  A    between atoms: _12  and  _13
REMARK    6  A    between atoms: _15  and  _17
REMARK    7  A    between atoms: _17  and  _18
REMARK    8  A    between atoms: _17  and  _20
REMARK    9  A    between atoms: _20  and  _21
REMARK   10  A    between atoms: _27  and  _29
REMARK   11  A    between atoms: _29  and  _30
REMARK   12  A    between atoms: _29  and  _32
REMARK   13  A    between atoms: _32  and  _33
REMARK   14  A    between atoms: _33  and  _34
REMARK   15  A    between atoms: _34  and  _35
REMARK   16  A    between atoms: _44  and  _46
REMARK   17  A    between atoms: _46  and  _47
REMARK   18  A    between atoms: _46  and  _49
REMARK   19  A    between atoms: _49  and  _50
REMARK   20  A    between atoms: _50  and  _51
REMARK   21  A    between atoms: _56  and  _58
REMARK   22  A    between atoms: _58  and  _59
REMARK   23  A    between atoms: _58  and  _61
REMARK   24  A    between atoms: _61  and  _62
REMARK   25  A    between atoms: _65  and  _67
REMARK   26  A    between atoms: _67  and  _68
REMARK   27  A    between atoms: _67  and  _70
REMARK   28  A    between atoms: _70  and  _71
REMARK   29  A    between atoms: _81  and  _83
REMARK   30  A    between atoms: _83  and  _84
REMARK   31  A    between atoms: _83  and  _86
REMARK   32  A    between atoms: _89  and  _91
REMARK   33  A    between atoms: _91  and  _92
REMARK   34  A    between atoms: _91  and  _94
REMARK   35  A    between atoms: _94  and  _95
REMARK   36  A    between atoms: _98  and  _100
REMARK   37  A    between atoms: _100  and  _101
REMARK   38  A    between atoms: _100  and  _103
REMARK   39  A    between atoms: _103  and  _104
REMARK   40  A    between atoms: _106  and  _108
REMARK   41  A    between atoms: _108  and  _109
REMARK   42  A    between atoms: _108  and  _111
REMARK   43  A    between atoms: _111  and  _112
REMARK   44  A    between atoms: _116  and  _117
REMARK   45  A    between atoms: _123  and  _124
REMARK   46  A    between atoms: _130  and  _131
REMARK   47  A    between atoms: _136  and  _138
REMARK   48  A    between atoms: _138  and  _139
REMARK   49  A    between atoms: _141  and  _143
REMARK   50  A    between atoms: _143  and  _144
REMARK   51  A    between atoms: _143  and  _146
REMARK   52  A    between atoms: _146  and  _147
REMARK   53  A    between atoms: _150  and  _152
REMARK   54  A    between atoms: _152  and  _153
REMARK   55  A    between atoms: _152  and  _155
REMARK   56  A    between atoms: _155  and  _156
REMARK   57  A    between atoms: _156  and  _157
REMARK   58  A    between atoms: _157  and  _158
REMARK   59  A    between atoms: _167  and  _169
REMARK   60  A    between atoms: _169  and  _170
REMARK   61  A    between atoms: _169  and  _172
REMARK   62  A    between atoms: _175  and  _177
REMARK   63  A    between atoms: _177  and  _178
REMARK   64  A    between atoms: _177  and  _180
REMARK   65  A    between atoms: _180  and  _181
REMARK   66  A    between atoms: _181  and  _182
REMARK   67  A    between atoms: _182  and  _183
REMARK   68  A    between atoms: _193  and  _194
REMARK   69  A    between atoms: _199  and  _201
REMARK   70  A    between atoms: _201  and  _202
REMARK   71  A    between atoms: _201  and  _204
REMARK   72  A    between atoms: _206  and  _208
REMARK   73  A    between atoms: _208  and  _209
REMARK   74  A    between atoms: _208  and  _211
REMARK   75  A    between atoms: _211  and  _212
REMARK   76  A    between atoms: _212  and  _213
REMARK   77  A    between atoms: _217  and  _218
REMARK   78  A    between atoms: _224  and  _225
REMARK   79  A    between atoms: _230  and  _232
REMARK   80  A    between atoms: _232  and  _233
REMARK   81  A    between atoms: _232  and  _235
REMARK   82  A    between atoms: _235  and  _236
REMARK   83  A    between atoms: _236  and  _237
REMARK   84  A    between atoms: _240  and  _242
REMARK   85  A    between atoms: _242  and  _243
REMARK   86  A    between atoms: _242  and  _245
REMARK   87  A    between atoms: _245  and  _246
REMARK   88  A    between atoms: _248  and  _250
REMARK   89  A    between atoms: _250  and  _251
REMARK   90  A    between atoms: _250  and  _253
REMARK   91  A    between atoms: _253  and  _254
REMARK   92  A    between atoms: _257  and  _259
REMARK   93  A    between atoms: _259  and  _260
REMARK   94  A    between atoms: _259  and  _262
REMARK   95  A    between atoms: _264  and  _266
REMARK   96  A    between atoms: _266  and  _267
REMARK   97  A    between atoms: _266  and  _269
REMARK   98  A    between atoms: _269  and  _270
REMARK   99  A    between atoms: _273  and  _275
REMARK  100  A    between atoms: _275  and  _276
REMARK  101  A    between atoms: _275  and  _278
REMARK  102  A    between atoms: _278  and  _279
REMARK  103  A    between atoms: _282  and  _284
REMARK  104  A    between atoms: _284  and  _285
REMARK  105  A    between atoms: _284  and  _287
REMARK  106  A    between atoms: _287  and  _288
REMARK                            x       y       z     vdW  Elec       q    Type
REMARK                         _______ _______ _______ _____ _____    ______ ____
ROOT
ATOM      1  CA  THR A   7      94.093  96.334 -48.119  0.00  0.00    +0.176 C 
ENDROOT
BRANCH   1   2
ATOM      2  C   THR A   7      95.101  95.375 -48.736  0.00  0.00    +0.246 C 
ATOM      3  N   PRO A   8      95.351  94.240 -48.069  0.00  0.00    -0.272 N 
ATOM      4  CD  PRO A   8      94.876  93.864 -46.726  0.00  0.00    +0.094 C 
ATOM      5  CG  PRO A   8      95.746  92.699 -46.357  0.00  0.00    +0.024 C 
ATOM      6  CB  PRO A   8      96.541  92.272 -47.514  0.00  0.00    +0.031 C 
ATOM      7  CA  PRO A   8      96.220  93.225 -48.674  0.00  0.00    +0.152 C 
ATOM      8  O   THR A   7      95.636  95.644 -49.803  0.00  0.00    -0.273 OA
BRANCH   7   9
ATOM      9  C   PRO A   8      95.471  92.467 -49.770  0.00  0.00    +0.244 C 
ATOM     10  O   PRO A   8      94.244  92.520 -49.838  0.00  0.00    -0.273 OA
ATOM     11  N   PRO A   9      96.205  91.762 -50.633  0.00  0.00    -0.272 N 
ATOM     12  CD  PRO A   9      97.673  91.745 -50.741  0.00  0.00    +0.094 C 
ATOM     13  CG  PRO A   9      97.890  91.324 -52.182  0.00  0.00    +0.024 C 
ATOM     14  CB  PRO A   9      96.755  90.397 -52.455  0.00  0.00    +0.031 C 
ATOM     15  CA  PRO A   9      95.563  91.030 -51.727  0.00  0.00    +0.152 C 
BRANCH  15  16
ATOM     16  C   PRO A   9      94.607  89.939 -51.259  0.00  0.00    +0.244 C 
ATOM     17  O   PRO A   9      94.802  89.347 -50.195  0.00  0.00    -0.273 OA
ATOM     18  N   PRO A  10      93.562  89.664 -52.040  0.00  0.00    -0.272 N 
ATOM     19  CA  PRO A  10      92.749  88.480 -51.764  0.00  0.00    +0.152 C 
ATOM     20  CB  PRO A  10      91.836  88.390 -52.991  0.00  0.00    +0.031 C 
ATOM     21  CG  PRO A  10      91.799  89.774 -53.540  0.00  0.00    +0.024 C 
ATOM     22  CD  PRO A  10      93.150  90.354 -53.275  0.00  0.00    +0.094 C 
BRANCH  19  23
ATOM     23  C   PRO A  10      93.654  87.250 -51.699  0.00  0.00    +0.241 C 
ATOM     24  N   GLY A  11      93.412  86.376 -50.730  0.00  0.00    -0.295 N 
ATOM     25  H   GLY A  11      92.622  86.539 -50.074  0.00  0.00    +0.150 HD
ATOM     26  O   PRO A  10      94.576  87.109 -52.512  0.00  0.00    -0.273 OA
BRANCH  24  27
ATOM     27  CA  GLY A  11      94.243  85.193 -50.579  0.00  0.00    +0.176 C 
BRANCH  27  28
ATOM     28  C   GLY A  11      95.297  85.345 -49.502  0.00  0.00    +0.243 C 
ATOM     29  N   THR A  12      95.476  86.568 -49.016  0.00  0.00    -0.295 N 
ATOM     30  H   THR A  12      95.013  87.375 -49.481  0.00  0.00    +0.150 HD
ATOM     31  O   GLY A  11      95.949  84.381 -49.120  0.00  0.00    -0.273 OA
BRANCH  29  32
ATOM     32  CA  THR A  12      96.309  86.801 -47.844  0.00  0.00    +0.176 C 
BRANCH  32  33
ATOM     33  C   THR A  12      95.724  86.022 -46.665  0.00  0.00    +0.243 C 
ATOM     34  N   ARG A  13      96.590  85.504 -45.796  0.00  0.00    -0.297 N 
ATOM     35  H   ARG A  13      97.608  85.666 -45.937  0.00  0.00    +0.150 HD
ATOM     36  O   THR A  12      94.503  85.885 -46.560  0.00  0.00    -0.273 OA
BRANCH  34  37
ATOM     37  CA  ARG A  13      96.145  84.711 -44.645  0.00  0.00    +0.149 C 
BRANCH  37  38
ATOM     38  C   ARG A  13      96.814  85.189 -43.371  0.00  0.00    +0.241 C 
ATOM     39  N   VAL A  14      96.249  84.776 -42.237  0.00  0.00    -0.298 N 
ATOM     40  H   VAL A  14      95.425  84.143 -42.291  0.00  0.00    +0.150 HD
ATOM     41  O   ARG A  13      97.820  85.908 -43.412  0.00  0.00    -0.273 OA
BRANCH  39  42
ATOM     42  CA  VAL A  14      96.740  85.176 -40.923  0.00  0.00    +0.137 C 
BRANCH  42  43
ATOM     43  CB  VAL A  14      95.690  86.033 -40.173  0.00  0.00    +0.026 C 
ATOM     44  CG2 VAL A  14      96.227  86.492 -38.815  0.00  0.00    +0.002 C 
ATOM     45  CG1 VAL A  14      95.264  87.228 -41.028  0.00  0.00    +0.002 C 
ENDBRANCH  42  43
BRANCH  42  46
ATOM     46  C   VAL A  14      96.995  83.901 -40.122  0.00  0.00    +0.227 C 
ATOM     47  O   VAL A  14      96.073  83.108 -39.902  0.00  0.00    -0.286 OA
ENDBRANCH  42  46
ENDBRANCH  39  42
ENDBRANCH  37  38
BRANCH  37  48
ATOM     48  CB  ARG A  13      96.445  83.225 -44.849  0.00  0.00    +0.033 C 
BRANCH  48  49
ATOM     49  CG  ARG A  13      95.762  82.661 -46.087  0.00  0.00    +0.045 C 
BRANCH  49  50
ATOM     50  CD  ARG A  13      95.432  81.174 -45.925  0.00  0.00    +0.174 C 
BRANCH  50  51
ATOM     51  NE  ARG A  13      96.633  80.360 -45.944  0.00  0.00    -0.265 N 
ATOM     52  CZ  ARG A  13      96.632  79.041 -45.798  0.00  0.00    +0.342 C 
ATOM     53  NH2 ARG A  13      95.490  78.406 -45.565  0.00  0.00    -0.292 N 
ATOM     54 HH21 ARG A  13      95.484  77.372 -45.450  0.00  0.00    +0.255 HD
ATOM     55 HH22 ARG A  13      94.601  78.942 -45.498  0.00  0.00    +0.255 HD
ATOM     56  NH1 ARG A  13      97.776  78.375 -45.853  0.00  0.00    -0.292 N 
ATOM     57 HH11 ARG A  13      97.782  77.341 -45.739  0.00  0.00    +0.255 HD
ATOM     58 HH12 ARG A  13      98.668  78.886 -46.010  0.00  0.00    +0.255 HD
ATOM     59  HE  ARG A  13      97.547  80.838 -46.080  0.00  0.00    +0.259 HD
ENDBRANCH  50  51
ENDBRANCH  49  50
ENDBRANCH  48  49
ENDBRANCH  37  48
ENDBRANCH  34  37
ENDBRANCH  32  33
BRANCH  32  60
ATOM     60  CB  THR A  12      96.342  88.297 -47.515  0.00  0.00    +0.137 C 
ATOM     61  CG2 THR A  12      97.218  88.581 -46.311  0.00  0.00    +0.034 C 
BRANCH  60  62
ATOM     62  OG1 THR A  12      96.884  89.014 -48.628  0.00  0.00    -0.382 OA
ATOM     63  HG1 THR A  12      96.317  88.862 -49.425  0.00  0.00    +0.210 HD
ENDBRANCH  60  62
ENDBRANCH  32  60
ENDBRANCH  29  32
ENDBRANCH  27  28
ENDBRANCH  24  27
ENDBRANCH  19  23
ENDBRANCH  15  16
ENDBRANCH   7   9
ENDBRANCH   1   2
BRANCH   1  66
ATOM     64  C   SER A   6      95.587  97.858 -46.951  0.00  0.00    +0.243 C 
ATOM     65  O   SER A   6      96.066  96.956 -46.262  0.00  0.00    -0.273 OA
ATOM     66  N   THR A   7      94.671  97.647 -47.883  0.00  0.00    -0.295 N 
ATOM     67  H   THR A   7      94.354  98.448 -48.466  0.00  0.00    +0.150 HD
BRANCH  64  68
ATOM     68  CA  SER A   6      96.006  99.306 -46.747  0.00  0.00    +0.178 C 
BRANCH  68  71
ATOM     69  C   ASP A   5      96.358 100.657 -44.763  0.00  0.00    +0.241 C 
ATOM     70  O   ASP A   5      95.790 101.622 -45.277  0.00  0.00    -0.273 OA
ATOM     71  N   SER A   6      96.536  99.510 -45.406  0.00  0.00    -0.295 N 
ATOM     72  H   SER A   6      97.064  98.742 -44.944  0.00  0.00    +0.150 HD
BRANCH  69  73
ATOM     73  CA  ASP A   5      96.923 100.748 -43.351  0.00  0.00    +0.160 C 
BRANCH  73  76
ATOM     74  C   VAL A   4      95.992  98.885 -42.096  0.00  0.00    +0.241 C 
ATOM     75  O   VAL A   4      94.909  99.461 -41.942  0.00  0.00    -0.273 OA
ATOM     76  N   ASP A   5      97.024  99.430 -42.720  0.00  0.00    -0.297 N 
ATOM     77  H   ASP A   5      97.925  98.912 -42.763  0.00  0.00    +0.150 HD
BRANCH  74  78
ATOM     78  CA  VAL A   4      96.208  97.474 -41.590  0.00  0.00    +0.149 C 
BRANCH  78  81
ATOM     79  C   TRP A   3      95.731  96.519 -39.400  0.00  0.00    +0.241 C 
ATOM     80  O   TRP A   3      96.847  96.022 -39.311  0.00  0.00    -0.273 OA
ATOM     81  N   VAL A   4      95.313  97.181 -40.476  0.00  0.00    -0.297 N 
ATOM     82  H   VAL A   4      94.323  97.497 -40.524  0.00  0.00    +0.150 HD
BRANCH  79  83
ATOM     83  CA  TRP A   3      94.757  96.413 -38.240  0.00  0.00    +0.153 C 
BRANCH  83  85
ATOM     84  C   LEU A   2      93.753  94.269 -37.609  0.00  0.00    +0.241 C 
ATOM     85  N   TRP A   3      94.811  95.072 -37.656  0.00  0.00    -0.297 N 
ATOM     86  H   TRP A   3      95.712  94.734 -37.262  0.00  0.00    +0.150 HD
ATOM     87  O   LEU A   2      92.629  94.578 -38.012  0.00  0.00    -0.273 OA
BRANCH  84  88
ATOM     88  CA  LEU A   2      93.975  92.907 -36.978  0.00  0.00    +0.149 C 
BRANCH  88  91
ATOM     89  C   GLN A   1      93.321  92.691 -34.632  0.00  0.00    +0.238 C 
ATOM     90  O   GLN A   1      94.486  92.669 -34.224  0.00  0.00    -0.274 OA
ATOM     91  N   LEU A   2      92.985  92.741 -35.917  0.00  0.00    -0.297 N 
ATOM     92  H   LEU A   2      91.981  92.659 -36.176  0.00  0.00    +0.150 HD
BRANCH  89  93
ATOM     93  CA  GLN A   1      92.174  92.693 -33.658  0.00  0.00    +0.145 C 
BRANCH  93  94
ATOM     94  N   GLN A   1      92.458  91.866 -32.489  0.00  0.00    -0.238 NA
ATOM     95  H   GLN A   1      92.891  92.302 -31.650  0.00  0.00    +0.142 HD
ENDBRANCH  93  94
BRANCH  93  96
ATOM     96  CB  GLN A   1      91.925  94.142 -33.238  0.00  0.00    +0.036 C 
BRANCH  96  97
ATOM     97  CG  GLN A   1      90.796  94.301 -32.240  0.00  0.00    +0.087 C 
BRANCH  97  98
ATOM     98  CD  GLN A   1      90.657  95.714 -31.730  0.00  0.00    +0.219 C 
ATOM     99  NE2 GLN A   1      89.451  96.046 -31.271  0.00  0.00    -0.329 N 
ATOM    100 HE21 GLN A   1      89.282  97.001 -30.896  0.00  0.00    +0.145 HD
ATOM    101 HE22 GLN A   1      88.678  95.350 -31.288  0.00  0.00    +0.145 HD
ATOM    102  OE1 GLN A   1      91.614  96.505 -31.733  0.00  0.00    -0.275 OA
ENDBRANCH  97  98
ENDBRANCH  96  97
ENDBRANCH  93  96
ENDBRANCH  89  93
ENDBRANCH  88  91
BRANCH  88 103
ATOM    103  CB  LEU A   2      93.807  91.827 -38.045  0.00  0.00    +0.029 C 
BRANCH 103 104
ATOM    104  CG  LEU A   2      93.692  90.389 -37.547  0.00  0.00    +0.002 C 
ATOM    105  CD2 LEU A   2      94.942  90.001 -36.792  0.00  0.00    +0.000 C 
ATOM    106  CD1 LEU A   2      93.451  89.441 -38.722  0.00  0.00    +0.000 C 
ENDBRANCH 103 104
ENDBRANCH  88 103
ENDBRANCH  84  88
ENDBRANCH  83  85
BRANCH  83 107
ATOM    107  CB  TRP A   3      95.161  97.452 -37.197  0.00  0.00    +0.057 C 
BRANCH 107 108
ATOM    108  CG  TRP A   3      94.164  97.636 -36.100  0.00  0.00    -0.002 A 
ATOM    109  CD1 TRP A   3      94.088  96.933 -34.931  0.00  0.00    +0.068 A 
ATOM    110  NE1 TRP A   3      93.044  97.396 -34.169  0.00  0.00    -0.352 N 
ATOM    111  HE1 TRP A   3      92.770  97.031 -33.234  0.00  0.00    +0.166 HD
ATOM    112  CE2 TRP A   3      92.422  98.414 -34.837  0.00  0.00    +0.056 A 
ATOM    113  CZ2 TRP A   3      91.321  99.186 -34.472  0.00  0.00    +0.017 A 
ATOM    114  CH2 TRP A   3      90.904 100.139 -35.357  0.00  0.00    +0.001 A 
ATOM    115  CZ3 TRP A   3      91.552 100.341 -36.580  0.00  0.00    +0.000 A 
ATOM    116  CE3 TRP A   3      92.649  99.579 -36.945  0.00  0.00    +0.001 A 
ATOM    117  CD2 TRP A   3      93.096  98.590 -36.064  0.00  0.00    +0.013 A 
ENDBRANCH 107 108
ENDBRANCH  83 107
ENDBRANCH  79  83
ENDBRANCH  78  81
BRANCH  78 118
ATOM    118  CB  VAL A   4      96.017  96.510 -42.796  0.00  0.00    +0.027 C 
ATOM    119  CG2 VAL A   4      96.462  95.082 -42.440  0.00  0.00    +0.002 C 
ATOM    120  CG1 VAL A   4      94.579  96.526 -43.280  0.00  0.00    +0.002 C 
ENDBRANCH  78 118
ENDBRANCH  74  78
ENDBRANCH  73  76
BRANCH  73 121
ATOM    121  CB  ASP A   5      98.292 101.409 -43.415  0.00  0.00    +0.143 C 
BRANCH 121 122
ATOM    122  CG  ASP A   5      98.804 101.832 -42.061  0.00  0.00    +0.367 C 
ATOM    123  OD2 ASP A   5      97.982 102.107 -41.159  0.00  0.00    -0.246 OA
ATOM    124  OD1 ASP A   5     100.039 101.894 -41.903  0.00  0.00    -0.246 OA
ENDBRANCH 121 122
ENDBRANCH  73 121
ENDBRANCH  69  73
ENDBRANCH  68  71
BRANCH  68 125
ATOM    125  CB  SER A   6      97.008  99.745 -47.825  0.00  0.00    +0.166 C 
BRANCH 125 126
ATOM    126  OG  SER A   6      98.244  99.063 -47.715  0.00  0.00    -0.380 OA
ATOM    127  H   SER A   6      98.644  99.248 -46.829  0.00  0.00    +0.211 HD
ENDBRANCH 125 126
ENDBRANCH  68 125
ENDBRANCH  64  68
ENDBRANCH   1  66
BRANCH   1 128
ATOM    128  CB  THR A   7      92.889  96.433 -49.069  0.00  0.00    +0.137 C 
ATOM    129  CG2 THR A   7      92.263  95.070 -49.277  0.00  0.00    +0.034 C 
BRANCH 128 130
ATOM    130  OG1 THR A   7      91.909  97.327 -48.520  0.00  0.00    -0.382 OA
ATOM    131  HG1 THR A   7      92.311  98.225 -48.405  0.00  0.00    +0.210 HD
ENDBRANCH 128 130
ENDBRANCH   1 128
TORSDOF 46
REMARK  Name = ../refined-set-2016/4agq/4agq_pocket.pdb
REMARK  106 active torsions:
REMARK  status: ('A' for Active; 'I' for Inactive)
REMARK    1  A    between atoms: _1  and  _3
REMARK    2  A    between atoms: _3  and  _4
REMARK    3  A    between atoms: _3  and  _6
REMARK    4  A    between atoms: _6  and  _7
REMARK    5  A    between atoms: _12  and  _13
REMARK    6  A    between atoms: _15  and  _17
REMARK    7  A    between atoms: _17  and  _18
REMARK    8  A    between atoms: _17  and  _20
REMARK    9  A    between atoms: _20  and  _21
REMARK   10  A    between atoms: _27  and  _29
REMARK   11  A    between atoms: _29  and  _30
REMARK   12  A    between atoms: _29  and  _32
REMARK   13  A    between atoms: _32  and  _33
REMARK   14  A    between atoms: _33  and  _34
REMARK   15  A    between atoms: _34  and  _35
REMARK   16  A    between atoms: _44  and  _46
REMARK   17  A    between atoms: _46  and  _47
REMARK   18  A    between atoms: _46  and  _49
REMARK   19  A    between atoms: _49  and  _50
REMARK   20  A    between atoms: _50  and  _51
REMARK   21  A    between atoms: _56  and  _58
REMARK   22  A    between atoms: _58  and  _59
REMARK   23  A    between atoms: _58  and  _61
REMARK   24  A    between atoms: _61  and  _62
REMARK   25  A    between atoms: _65  and  _67
REMARK   26  A    between atoms: _67  and  _68
REMARK   27  A    between atoms: _67  and  _70
REMARK   28  A    between atoms: _70  and  _71
REMARK   29  A    between atoms: _81  and  _83
REMARK   30  A    between atoms: _83  and  _84
REMARK   31  A    between atoms: _83  and  _86
REMARK   32  A    between atoms: _89  and  _91
REMARK   33  A    between atoms: _91  and  _92
REMARK   34  A    between atoms: _91  and  _94
REMARK   35  A    between atoms: _94  and  _95
REMARK   36  A    between atoms: _98  and  _100
REMARK   37  A    between atoms: _100  and  _101
REMARK   38  A    between atoms: _100  and  _103
REMARK   39  A    between atoms: _103  and  _104
REMARK   40  A    between atoms: _106  and  _108
REMARK   41  A    between atoms: _108  and  _109
REMARK   42  A    between atoms: _108  and  _111
REMARK   43  A    between atoms: _111  and  _112
REMARK   44  A    between atoms: _116  and  _117
REMARK   45  A    between atoms: _123  and  _124
REMARK   46  A    between atoms: _130  and  _131
REMARK   47  A    between atoms: _136  and  _138
REMARK   48  A    between atoms: _138  and  _139
REMARK   49  A    between atoms: _141  and  _143
REMARK   50  A    between atoms: _143  and  _144
REMARK   51  A    between atoms: _143  and  _146
REMARK   52  A    between atoms: _146  and  _147
REMARK   53  A    between atoms: _150  and  _152
REMARK   54  A    between atoms: _152  and  _153
REMARK   55  A    between atoms: _152  and  _155
REMARK   56  A    between atoms: _155  and  _156
REMARK   57  A    between atoms: _156  and  _157
REMARK   58  A    between atoms: _157  and  _158
REMARK   59  A    between atoms: _167  and  _169
REMARK   60  A    between atoms: _169  and  _170
REMARK   61  A    between atoms: _169  and  _172
REMARK   62  A    between atoms: _175  and  _177
REMARK   63  A    between atoms: _177  and  _178
REMARK   64  A    between atoms: _177  and  _180
REMARK   65  A    between atoms: _180  and  _181
REMARK   66  A    between atoms: _181  and  _182
REMARK   67  A    between atoms: _182  and  _183
REMARK   68  A    between atoms: _193  and  _194
REMARK   69  A    between atoms: _199  and  _201
REMARK   70  A    between atoms: _201  and  _202
REMARK   71  A    between atoms: _201  and  _204
REMARK   72  A    between atoms: _206  and  _208
REMARK   73  A    between atoms: _208  and  _209
REMARK   74  A    between atoms: _208  and  _211
REMARK   75  A    between atoms: _211  and  _212
REMARK   76  A    between atoms: _212  and  _213
REMARK   77  A    between atoms: _217  and  _218
REMARK   78  A    between atoms: _224  and  _225
REMARK   79  A    between atoms: _230  and  _232
REMARK   80  A    between atoms: _232  and  _233
REMARK   81  A    between atoms: _232  and  _235
REMARK   82  A    between atoms: _235  and  _236
REMARK   83  A    between atoms: _236  and  _237
REMARK   84  A    between atoms: _240  and  _242
REMARK   85  A    between atoms: _242  and  _243
REMARK   86  A    between atoms: _242  and  _245
REMARK   87  A    between atoms: _245  and  _246
REMARK   88  A    between atoms: _248  and  _250
REMARK   89  A    between atoms: _250  and  _251
REMARK   90  A    between atoms: _250  and  _253
REMARK   91  A    between atoms: _253  and  _254
REMARK   92  A    between atoms: _257  and  _259
REMARK   93  A    between atoms: _259  and  _260
REMARK   94  A    between atoms: _259  and  _262
REMARK   95  A    between atoms: _264  and  _266
REMARK   96  A    between atoms: _266  and  _267
REMARK   97  A    between atoms: _266  and  _269
REMARK   98  A    between atoms: _269  and  _270
REMARK   99  A    between atoms: _273  and  _275
REMARK  100  A    between atoms: _275  and  _276
REMARK  101  A    between atoms: _275  and  _278
REMARK  102  A    between atoms: _278  and  _279
REMARK  103  A    between atoms: _282  and  _284
REMARK  104  A    between atoms: _284  and  _285
REMARK  105  A    between atoms: _284  and  _287
REMARK  106  A    between atoms: _287  and  _288
REMARK                            x       y       z     vdW  Elec       q    Type
REMARK                         _______ _______ _______ _____ _____    ______ ____
ROOT
ATOM      1  NE  ARG A   1      86.719  81.703 -45.607  0.00  0.00    -0.265 N 
ATOM      2  HE  ARG A   1      86.451  81.898 -44.621  0.00  0.00    +0.259 HD
ATOM      3  CZ  ARG A   1      87.045  82.735 -46.376  0.00  0.00    +0.342 C 
ATOM      4  NH2 ARG A   1      87.022  83.962 -45.874  0.00  0.00    -0.292 N 
ATOM      5 HH21 ARG A   1      86.749  84.113 -44.882  0.00  0.00    +0.255 HD
ATOM      6 HH22 ARG A   1      87.277  84.774 -46.472  0.00  0.00    +0.255 HD
ATOM      7  NH1 ARG A   1      87.404  82.541 -47.641  0.00  0.00    -0.292 N 
ATOM      8 HH11 ARG A   1      87.430  81.578 -48.032  0.00  0.00    +0.255 HD
ATOM      9 HH12 ARG A   1      87.659  83.352 -48.240  0.00  0.00    +0.255 HD
ENDROOT
BRANCH   1  10
ATOM     10  CD  ARG A   1      86.712  80.316 -46.052  0.00  0.00    +0.174 C 
BRANCH  10  11
ATOM     11  CG  ARG A   1      86.573  79.357 -44.887  0.00  0.00    +0.045 C 
BRANCH  11  12
ATOM     12  CB  ARG A   1      87.804  79.380 -43.981  0.00  0.00    +0.029 C 
BRANCH  12  13
ATOM     13  CA  ARG A   1      87.861  78.190 -43.017  0.00  0.00    +0.133 C 
BRANCH  13  14
ATOM     14  N   ARG A   1      86.741  78.227 -42.085  0.00  0.00    -0.239 NA
ATOM     15  H   ARG A   1      86.464  79.133 -41.655  0.00  0.00    +0.142 HD
ENDBRANCH  13  14
BRANCH  13  16
ATOM     16  C   ARG A   1      89.223  78.116 -42.325  0.00  0.00    +0.224 C 
ATOM     17  O   ARG A   1      90.255  78.208 -42.977  0.00  0.00    -0.287 OA
ENDBRANCH  13  16
ENDBRANCH  12  13
ENDBRANCH  11  12
ENDBRANCH  10  11
ENDBRANCH   1  10
TORSDOF 6
REMARK  Name = ../refined-set-2016/4agq/4agq_pocket.pdb
REMARK  106 active torsions:
REMARK  status: ('A' for Active; 'I' for Inactive)
REMARK    1  A    between atoms: _1  and  _3
REMARK    2  A    between atoms: _3  and  _4
REMARK    3  A    between atoms: _3  and  _6
REMARK    4  A    between atoms: _6  and  _7
REMARK    5  A    between atoms: _12  and  _13
REMARK    6  A    between atoms: _15  and  _17
REMARK    7  A    between atoms: _17  and  _18
REMARK    8  A    between atoms: _17  and  _20
REMARK    9  A    between atoms: _20  and  _21
REMARK   10  A    between atoms: _27  and  _29
REMARK   11  A    between atoms: _29  and  _30
REMARK   12  A    between atoms: _29  and  _32
REMARK   13  A    between atoms: _32  and  _33
REMARK   14  A    between atoms: _33  and  _34
REMARK   15  A    between atoms: _34  and  _35
REMARK   16  A    between atoms: _44  and  _46
REMARK   17  A    between atoms: _46  and  _47
REMARK   18  A    between atoms: _46  and  _49
REMARK   19  A    between atoms: _49  and  _50
REMARK   20  A    between atoms: _50  and  _51
REMARK   21  A    between atoms: _56  and  _58
REMARK   22  A    between atoms: _58  and  _59
REMARK   23  A    between atoms: _58  and  _61
REMARK   24  A    between atoms: _61  and  _62
REMARK   25  A    between atoms: _65  and  _67
REMARK   26  A    between atoms: _67  and  _68
REMARK   27  A    between atoms: _67  and  _70
REMARK   28  A    between atoms: _70  and  _71
REMARK   29  A    between atoms: _81  and  _83
REMARK   30  A    between atoms: _83  and  _84
REMARK   31  A    between atoms: _83  and  _86
REMARK   32  A    between atoms: _89  and  _91
REMARK   33  A    between atoms: _91  and  _92
REMARK   34  A    between atoms: _91  and  _94
REMARK   35  A    between atoms: _94  and  _95
REMARK   36  A    between atoms: _98  and  _100
REMARK   37  A    between atoms: _100  and  _101
REMARK   38  A    between atoms: _100  and  _103
REMARK   39  A    between atoms: _103  and  _104
REMARK   40  A    between atoms: _106  and  _108
REMARK   41  A    between atoms: _108  and  _109
REMARK   42  A    between atoms: _108  and  _111
REMARK   43  A    between atoms: _111  and  _112
REMARK   44  A    between atoms: _116  and  _117
REMARK   45  A    between atoms: _123  and  _124
REMARK   46  A    between atoms: _130  and  _131
REMARK   47  A    between atoms: _136  and  _138
REMARK   48  A    between atoms: _138  and  _139
REMARK   49  A    between atoms: _141  and  _143
REMARK   50  A    between atoms: _143  and  _144
REMARK   51  A    between atoms: _143  and  _146
REMARK   52  A    between atoms: _146  and  _147
REMARK   53  A    between atoms: _150  and  _152
REMARK   54  A    between atoms: _152  and  _153
REMARK   55  A    between atoms: _152  and  _155
REMARK   56  A    between atoms: _155  and  _156
REMARK   57  A    between atoms: _156  and  _157
REMARK   58  A    between atoms: _157  and  _158
REMARK   59  A    between atoms: _167  and  _169
REMARK   60  A    between atoms: _169  and  _170
REMARK   61  A    between atoms: _169  and  _172
REMARK   62  A    between atoms: _175  and  _177
REMARK   63  A    between atoms: _177  and  _178
REMARK   64  A    between atoms: _177  and  _180
REMARK   65  A    between atoms: _180  and  _181
REMARK   66  A    between atoms: _181  and  _182
REMARK   67  A    between atoms: _182  and  _183
REMARK   68  A    between atoms: _193  and  _194
REMARK   69  A    between atoms: _199  and  _201
REMARK   70  A    between atoms: _201  and  _202
REMARK   71  A    between atoms: _201  and  _204
REMARK   72  A    between atoms: _206  and  _208
REMARK   73  A    between atoms: _208  and  _209
REMARK   74  A    between atoms: _208  and  _211
REMARK   75  A    between atoms: _211  and  _212
REMARK   76  A    between atoms: _212  and  _213
REMARK   77  A    between atoms: _217  and  _218
REMARK   78  A    between atoms: _224  and  _225
REMARK   79  A    between atoms: _230  and  _232
REMARK   80  A    between atoms: _232  and  _233
REMARK   81  A    between atoms: _232  and  _235
REMARK   82  A    between atoms: _235  and  _236
REMARK   83  A    between atoms: _236  and  _237
REMARK   84  A    between atoms: _240  and  _242
REMARK   85  A    between atoms: _242  and  _243
REMARK   86  A    between atoms: _242  and  _245
REMARK   87  A    between atoms: _245  and  _246
REMARK   88  A    between atoms: _248  and  _250
REMARK   89  A    between atoms: _250  and  _251
REMARK   90  A    between atoms: _250  and  _253
REMARK   91  A    between atoms: _253  and  _254
REMARK   92  A    between atoms: _257  and  _259
REMARK   93  A    between atoms: _259  and  _260
REMARK   94  A    between atoms: _259  and  _262
REMARK   95  A    between atoms: _264  and  _266
REMARK   96  A    between atoms: _266  and  _267
REMARK   97  A    between atoms: _266  and  _269
REMARK   98  A    between atoms: _269  and  _270
REMARK   99  A    between atoms: _273  and  _275
REMARK  100  A    between atoms: _275  and  _276
REMARK  101  A    between atoms: _275  and  _278
REMARK  102  A    between atoms: _278  and  _279
REMARK  103  A    between atoms: _282  and  _284
REMARK  104  A    between atoms: _284  and  _285
REMARK  105  A    between atoms: _284  and  _287
REMARK  106  A    between atoms: _287  and  _288
REMARK                            x       y       z     vdW  Elec       q    Type
REMARK                         _______ _______ _______ _____ _____    ______ ____
ROOT
ATOM      1  C   GLU A   3      88.925  90.771 -44.106  0.00  0.00    +0.244 C 
ATOM      2  O   GLU A   3      89.376  91.118 -43.022  0.00  0.00    -0.273 OA
ATOM      3  N   PRO A   4      88.260  91.599 -44.925  0.00  0.00    -0.272 N 
ATOM      4  CA  PRO A   4      87.947  92.976 -44.523  0.00  0.00    +0.152 C 
ATOM      5  CB  PRO A   4      87.275  93.558 -45.770  0.00  0.00    +0.031 C 
ATOM      6  CG  PRO A   4      87.767  92.714 -46.906  0.00  0.00    +0.024 C 
ATOM      7  CD  PRO A   4      87.923  91.339 -46.336  0.00  0.00    +0.094 C 
ENDROOT
BRANCH   4   8
ATOM      8  C   PRO A   4      86.993  93.017 -43.325  0.00  0.00    +0.244 C 
ATOM      9  N   PRO A   5      86.972  94.144 -42.607  0.00  0.00    -0.272 N 
ATOM     10  CA  PRO A   5      86.083  94.295 -41.450  0.00  0.00    +0.152 C 
ATOM     11  CB  PRO A   5      86.376  95.720 -40.969  0.00  0.00    +0.031 C 
ATOM     12  CG  PRO A   5      87.761  95.998 -41.420  0.00  0.00    +0.024 C 
ATOM     13  CD  PRO A   5      87.936  95.252 -42.717  0.00  0.00    +0.094 C 
ATOM     14  O   PRO A   4      86.309  92.037 -43.028  0.00  0.00    -0.273 OA
BRANCH  10  15
ATOM     15  C   PRO A   5      84.614  94.194 -41.829  0.00  0.00    +0.241 C 
ATOM     16  N   GLU A   6      83.792  93.810 -40.861  0.00  0.00    -0.298 N 
ATOM     17  H   GLU A   6      84.190  93.437 -39.976  0.00  0.00    +0.150 HD
ATOM     18  O   PRO A   5      84.241  94.457 -42.973  0.00  0.00    -0.273 OA
BRANCH  16  19
ATOM     19  CA  GLU A   6      82.345  93.899 -41.009  0.00  0.00    +0.137 C 
BRANCH  19  20
ATOM     20  C   GLU A   6      81.971  95.345 -41.301  0.00  0.00    +0.227 C 
ATOM     21  O   GLU A   6      82.662  96.270 -40.877  0.00  0.00    -0.286 OA
ENDBRANCH  19  20
BRANCH  19  22
ATOM     22  CB  GLU A   6      81.652  93.428 -39.731  0.00  0.00    +0.039 C 
BRANCH  22  23
ATOM     23  CG  GLU A   6      81.987  91.996 -39.351  0.00  0.00    +0.116 C 
BRANCH  23  24
ATOM     24  CD  GLU A   6      81.566  91.017 -40.419  0.00  0.00    +0.365 C 
ATOM     25  OE2 GLU A   6      80.347  90.927 -40.686  0.00  0.00    -0.246 OA
ATOM     26  OE1 GLU A   6      82.453  90.343 -40.994  0.00  0.00    -0.246 OA
ENDBRANCH  23  24
ENDBRANCH  22  23
ENDBRANCH  19  22
ENDBRANCH  16  19
ENDBRANCH  10  15
ENDBRANCH   4   8
BRANCH   1  27
ATOM     27  CA  GLU A   3      89.083  89.338 -44.565  0.00  0.00    +0.149 C 
BRANCH  27  29
ATOM     28  C   CYS A   2      91.184  88.160 -44.809  0.00  0.00    +0.242 C 
ATOM     29  N   GLU A   3      90.318  88.788 -44.023  0.00  0.00    -0.297 N 
ATOM     30  H   GLU A   3      90.524  88.888 -43.009  0.00  0.00    +0.150 HD
ATOM     31  O   CYS A   2      91.005  88.009 -46.016  0.00  0.00    -0.273 OA
BRANCH  28  32
ATOM     32  CA  CYS A   2      92.427  87.586 -44.109  0.00  0.00    +0.160 C 
BRANCH  32  35
ATOM     33  C   PRO A   1      91.797  85.267 -43.963  0.00  0.00    +0.239 C 
ATOM     34  O   PRO A   1      91.047  85.486 -43.009  0.00  0.00    -0.274 OA
ATOM     35  N   CYS A   2      92.560  86.203 -44.510  0.00  0.00    -0.296 N 
ATOM     36  H   CYS A   2      93.260  85.941 -45.233  0.00  0.00    +0.150 HD
BRANCH  33  41
ATOM     37  N   PRO A   1      91.825  82.824 -43.556  0.00  0.00    -0.210 NA
ATOM     38  CD  PRO A   1      90.720  81.887 -43.817  0.00  0.00    +0.089 C 
ATOM     39  CG  PRO A   1      90.395  82.159 -45.276  0.00  0.00    +0.021 C 
ATOM     40  CB  PRO A   1      90.707  83.600 -45.479  0.00  0.00    +0.028 C 
ATOM     41  CA  PRO A   1      91.917  83.876 -44.574  0.00  0.00    +0.149 C 
ENDBRANCH  33  41
ENDBRANCH  32  35
BRANCH  32  42
ATOM     42  CB  CYS A   2      93.710  88.340 -44.462  0.00  0.00    +0.098 C 
ATOM     43  SG  CYS A   2      93.807  90.032 -43.863  0.00  0.00    -0.080 S 
ENDBRANCH  32  42
ENDBRANCH  28  32
ENDBRANCH  27  29
BRANCH  27  44
ATOM     44  CB  GLU A   3      87.876  88.556 -44.064  0.00  0.00    +0.041 C 
BRANCH  44  45
ATOM     45  CG  GLU A   3      87.844  87.107 -44.461  0.00  0.00    +0.116 C 
BRANCH  45  46
ATOM     46  CD  GLU A   3      86.610  86.406 -43.918  0.00  0.00    +0.365 C 
ATOM     47  OE2 GLU A   3      86.589  86.083 -42.708  0.00  0.00    -0.246 OA
ATOM     48  OE1 GLU A   3      85.656  86.190 -44.697  0.00  0.00    -0.246 OA
ENDBRANCH  45  46
ENDBRANCH  44  45
ENDBRANCH  27  44
ENDBRANCH   1  27
TORSDOF 16
REMARK  Name = ../refined-set-2016/4agq/4agq_pocket.pdb
REMARK  106 active torsions:
REMARK  status: ('A' for Active; 'I' for Inactive)
REMARK    1  A    between atoms: _1  and  _3
REMARK    2  A    between atoms: _3  and  _4
REMARK    3  A    between atoms: _3  and  _6
REMARK    4  A    between atoms: _6  and  _7
REMARK    5  A    between atoms: _12  and  _13
REMARK    6  A    between atoms: _15  and  _17
REMARK    7  A    between atoms: _17  and  _18
REMARK    8  A    between atoms: _17  and  _20
REMARK    9  A    between atoms: _20  and  _21
REMARK   10  A    between atoms: _27  and  _29
REMARK   11  A    between atoms: _29  and  _30
REMARK   12  A    between atoms: _29  and  _32
REMARK   13  A    between atoms: _32  and  _33
REMARK   14  A    between atoms: _33  and  _34
REMARK   15  A    between atoms: _34  and  _35
REMARK   16  A    between atoms: _44  and  _46
REMARK   17  A    between atoms: _46  and  _47
REMARK   18  A    between atoms: _46  and  _49
REMARK   19  A    between atoms: _49  and  _50
REMARK   20  A    between atoms: _50  and  _51
REMARK   21  A    between atoms: _56  and  _58
REMARK   22  A    between atoms: _58  and  _59
REMARK   23  A    between atoms: _58  and  _61
REMARK   24  A    between atoms: _61  and  _62
REMARK   25  A    between atoms: _65  and  _67
REMARK   26  A    between atoms: _67  and  _68
REMARK   27  A    between atoms: _67  and  _70
REMARK   28  A    between atoms: _70  and  _71
REMARK   29  A    between atoms: _81  and  _83
REMARK   30  A    between atoms: _83  and  _84
REMARK   31  A    between atoms: _83  and  _86
REMARK   32  A    between atoms: _89  and  _91
REMARK   33  A    between atoms: _91  and  _92
REMARK   34  A    between atoms: _91  and  _94
REMARK   35  A    between atoms: _94  and  _95
REMARK   36  A    between atoms: _98  and  _100
REMARK   37  A    between atoms: _100  and  _101
REMARK   38  A    between atoms: _100  and  _103
REMARK   39  A    between atoms: _103  and  _104
REMARK   40  A    between atoms: _106  and  _108
REMARK   41  A    between atoms: _108  and  _109
REMARK   42  A    between atoms: _108  and  _111
REMARK   43  A    between atoms: _111  and  _112
REMARK   44  A    between atoms: _116  and  _117
REMARK   45  A    between atoms: _123  and  _124
REMARK   46  A    between atoms: _130  and  _131
REMARK   47  A    between atoms: _136  and  _138
REMARK   48  A    between atoms: _138  and  _139
REMARK   49  A    between atoms: _141  and  _143
REMARK   50  A    between atoms: _143  and  _144
REMARK   51  A    between atoms: _143  and  _146
REMARK   52  A    between atoms: _146  and  _147
REMARK   53  A    between atoms: _150  and  _152
REMARK   54  A    between atoms: _152  and  _153
REMARK   55  A    between atoms: _152  and  _155
REMARK   56  A    between atoms: _155  and  _156
REMARK   57  A    between atoms: _156  and  _157
REMARK   58  A    between atoms: _157  and  _158
REMARK   59  A    between atoms: _167  and  _169
REMARK   60  A    between atoms: _169  and  _170
REMARK   61  A    between atoms: _169  and  _172
REMARK   62  A    between atoms: _175  and  _177
REMARK   63  A    between atoms: _177  and  _178
REMARK   64  A    between atoms: _177  and  _180
REMARK   65  A    between atoms: _180  and  _181
REMARK   66  A    between atoms: _181  and  _182
REMARK   67  A    between atoms: _182  and  _183
REMARK   68  A    between atoms: _193  and  _194
REMARK   69  A    between atoms: _199  and  _201
REMARK   70  A    between atoms: _201  and  _202
REMARK   71  A    between atoms: _201  and  _204
REMARK   72  A    between atoms: _206  and  _208
REMARK   73  A    between atoms: _208  and  _209
REMARK   74  A    between atoms: _208  and  _211
REMARK   75  A    between atoms: _211  and  _212
REMARK   76  A    between atoms: _212  and  _213
REMARK   77  A    between atoms: _217  and  _218
REMARK   78  A    between atoms: _224  and  _225
REMARK   79  A    between atoms: _230  and  _232
REMARK   80  A    between atoms: _232  and  _233
REMARK   81  A    between atoms: _232  and  _235
REMARK   82  A    between atoms: _235  and  _236
REMARK   83  A    between atoms: _236  and  _237
REMARK   84  A    between atoms: _240  and  _242
REMARK   85  A    between atoms: _242  and  _243
REMARK   86  A    between atoms: _242  and  _245
REMARK   87  A    between atoms: _245  and  _246
REMARK   88  A    between atoms: _248  and  _250
REMARK   89  A    between atoms: _250  and  _251
REMARK   90  A    between atoms: _250  and  _253
REMARK   91  A    between atoms: _253  and  _254
REMARK   92  A    between atoms: _257  and  _259
REMARK   93  A    between atoms: _259  and  _260
REMARK   94  A    between atoms: _259  and  _262
REMARK   95  A    between atoms: _264  and  _266
REMARK   96  A    between atoms: _266  and  _267
REMARK   97  A    between atoms: _266  and  _269
REMARK   98  A    between atoms: _269  and  _270
REMARK   99  A    between atoms: _273  and  _275
REMARK  100  A    between atoms: _275  and  _276
REMARK  101  A    between atoms: _275  and  _278
REMARK  102  A    between atoms: _278  and  _279
REMARK  103  A    between atoms: _282  and  _284
REMARK  104  A    between atoms: _284  and  _285
REMARK  105  A    between atoms: _284  and  _287
REMARK  106  A    between atoms: _287  and  _288
REMARK                            x       y       z     vdW  Elec       q    Type
REMARK                         _______ _______ _______ _____ _____    ______ ____
ROOT
ATOM      1  CA  CYS A   3      89.437  96.354 -38.017  0.00  0.00    +0.160 C 
ENDROOT
BRANCH   1   3
ATOM      2  C   ASP A   2      88.721  98.547 -38.787  0.00  0.00    +0.241 C 
ATOM      3  N   CYS A   3      88.458  97.431 -38.114  0.00  0.00    -0.296 N 
ATOM      4  H   CYS A   3      87.535  97.324 -37.647  0.00  0.00    +0.150 HD
ATOM      5  O   ASP A   2      89.799  98.755 -39.356  0.00  0.00    -0.273 OA
BRANCH   2   6
ATOM      6  CA  ASP A   2      87.611  99.596 -38.819  0.00  0.00    +0.160 C 
BRANCH   6   8
ATOM      7  C   SER A   1      85.306  98.847 -39.089  0.00  0.00    +0.241 C 
ATOM      8  N   ASP A   2      86.341  99.106 -38.298  0.00  0.00    -0.297 N 
ATOM      9  H   ASP A   2      86.242  98.954 -37.274  0.00  0.00    +0.150 HD
ATOM     10  O   SER A   1      85.366  98.905 -40.312  0.00  0.00    -0.274 OA
BRANCH   7  11
ATOM     11  CA  SER A   1      84.011  98.455 -38.383  0.00  0.00    +0.174 C 
BRANCH  11  12
ATOM     12  N   SER A   1      82.828  98.641 -39.223  0.00  0.00    -0.236 NA
ATOM     13  H   SER A   1      82.639  97.967 -39.992  0.00  0.00    +0.142 HD
ENDBRANCH  11  12
BRANCH  11  14
ATOM     14  CB  SER A   1      84.100  97.011 -37.890  0.00  0.00    +0.163 C 
BRANCH  14  15
ATOM     15  OG  SER A   1      83.067  96.744 -36.951  0.00  0.00    -0.380 OA
ATOM     16  H   SER A   1      83.138  95.806 -36.642  0.00  0.00    +0.211 HD
ENDBRANCH  14  15
ENDBRANCH  11  14
ENDBRANCH   7  11
ENDBRANCH   6   8
BRANCH   6  17
ATOM     17  CB  ASP A   2      88.046 100.827 -38.026  0.00  0.00    +0.143 C 
BRANCH  17  18
ATOM     18  CG  ASP A   2      87.127 102.019 -38.249  0.00  0.00    +0.367 C 
ATOM     19  OD2 ASP A   2      86.819 102.719 -37.265  0.00  0.00    -0.246 OA
ATOM     20  OD1 ASP A   2      86.718 102.241 -39.406  0.00  0.00    -0.246 OA
ENDBRANCH  17  18
ENDBRANCH   6  17
ENDBRANCH   2   6
ENDBRANCH   1   3
BRANCH   1  21
ATOM     21  C   CYS A   3      88.710  95.030 -38.027  0.00  0.00    +0.242 C 
ATOM     22  O   CYS A   3      87.492  94.979 -37.854  0.00  0.00    -0.273 OA
ATOM     23  N   THR A   4      89.464  93.960 -38.257  0.00  0.00    -0.295 N 
ATOM     24  H   THR A   4      90.475  94.090 -38.465  0.00  0.00    +0.150 HD
BRANCH  23  25
ATOM     25  CA  THR A   4      88.916  92.613 -38.226  0.00  0.00    +0.176 C 
BRANCH  25  26
ATOM     26  C   THR A   4      89.311  91.953 -36.920  0.00  0.00    +0.243 C 
ATOM     27  N   THR A   5      88.414  91.147 -36.365  0.00  0.00    -0.296 N 
ATOM     28  H   THR A   5      87.503  90.989 -36.842  0.00  0.00    +0.150 HD
ATOM     29  O   THR A   4      90.402  92.195 -36.405  0.00  0.00    -0.273 OA
BRANCH  27  30
ATOM     30  CA  THR A   5      88.686  90.479 -35.096  0.00  0.00    +0.164 C 
BRANCH  30  31
ATOM     31  C   THR A   5      88.719  88.963 -35.308  0.00  0.00    +0.229 C 
ATOM     32  O   THR A   5      87.812  88.395 -35.919  0.00  0.00    -0.286 OA
ENDBRANCH  30  31
BRANCH  30  33
ATOM     33  CB  THR A   5      87.639  90.838 -34.028  0.00  0.00    +0.136 C 
ATOM     34  CG2 THR A   5      87.912  90.090 -32.732  0.00  0.00    +0.034 C 
BRANCH  33  35
ATOM     35  OG1 THR A   5      87.691  92.249 -33.760  0.00  0.00    -0.382 OA
ATOM     36  HG1 THR A   5      87.499  92.749 -34.592  0.00  0.00    +0.210 HD
ENDBRANCH  33  35
ENDBRANCH  30  33
ENDBRANCH  27  30
ENDBRANCH  25  26
BRANCH  25  37
ATOM     37  CB  THR A   4      89.435  91.814 -39.423  0.00  0.00    +0.137 C 
ATOM     38  CG2 THR A   4      89.005  90.358 -39.356  0.00  0.00    +0.034 C 
BRANCH  37  39
ATOM     39  OG1 THR A   4      88.908  92.400 -40.622  0.00  0.00    -0.382 OA
ATOM     40  HG1 THR A   4      89.235  91.893 -41.407  0.00  0.00    +0.210 HD
ENDBRANCH  37  39
ENDBRANCH  25  37
ENDBRANCH  23  25
ENDBRANCH   1  21
BRANCH   1  41
ATOM     41  CB  CYS A   3      90.262  96.480 -36.735  0.00  0.00    +0.098 C 
ATOM     42  SG  CYS A   3      89.330  96.191 -35.216  0.00  0.00    -0.080 S 
ENDBRANCH   1  41
TORSDOF 19
REMARK  Name = ../refined-set-2016/4agq/4agq_pocket.pdb
REMARK  106 active torsions:
REMARK  status: ('A' for Active; 'I' for Inactive)
REMARK    1  A    between atoms: _1  and  _3
REMARK    2  A    between atoms: _3  and  _4
REMARK    3  A    between atoms: _3  and  _6
REMARK    4  A    between atoms: _6  and  _7
REMARK    5  A    between atoms: _12  and  _13
REMARK    6  A    between atoms: _15  and  _17
REMARK    7  A    between atoms: _17  and  _18
REMARK    8  A    between atoms: _17  and  _20
REMARK    9  A    between atoms: _20  and  _21
REMARK   10  A    between atoms: _27  and  _29
REMARK   11  A    between atoms: _29  and  _30
REMARK   12  A    between atoms: _29  and  _32
REMARK   13  A    between atoms: _32  and  _33
REMARK   14  A    between atoms: _33  and  _34
REMARK   15  A    between atoms: _34  and  _35
REMARK   16  A    between atoms: _44  and  _46
REMARK   17  A    between atoms: _46  and  _47
REMARK   18  A    between atoms: _46  and  _49
REMARK   19  A    between atoms: _49  and  _50
REMARK   20  A    between atoms: _50  and  _51
REMARK   21  A    between atoms: _56  and  _58
REMARK   22  A    between atoms: _58  and  _59
REMARK   23  A    between atoms: _58  and  _61
REMARK   24  A    between atoms: _61  and  _62
REMARK   25  A    between atoms: _65  and  _67
REMARK   26  A    between atoms: _67  and  _68
REMARK   27  A    between atoms: _67  and  _70
REMARK   28  A    between atoms: _70  and  _71
REMARK   29  A    between atoms: _81  and  _83
REMARK   30  A    between atoms: _83  and  _84
REMARK   31  A    between atoms: _83  and  _86
REMARK   32  A    between atoms: _89  and  _91
REMARK   33  A    between atoms: _91  and  _92
REMARK   34  A    between atoms: _91  and  _94
REMARK   35  A    between atoms: _94  and  _95
REMARK   36  A    between atoms: _98  and  _100
REMARK   37  A    between atoms: _100  and  _101
REMARK   38  A    between atoms: _100  and  _103
REMARK   39  A    between atoms: _103  and  _104
REMARK   40  A    between atoms: _106  and  _108
REMARK   41  A    between atoms: _108  and  _109
REMARK   42  A    between atoms: _108  and  _111
REMARK   43  A    between atoms: _111  and  _112
REMARK   44  A    between atoms: _116  and  _117
REMARK   45  A    between atoms: _123  and  _124
REMARK   46  A    between atoms: _130  and  _131
REMARK   47  A    between atoms: _136  and  _138
REMARK   48  A    between atoms: _138  and  _139
REMARK   49  A    between atoms: _141  and  _143
REMARK   50  A    between atoms: _143  and  _144
REMARK   51  A    between atoms: _143  and  _146
REMARK   52  A    between atoms: _146  and  _147
REMARK   53  A    between atoms: _150  and  _152
REMARK   54  A    between atoms: _152  and  _153
REMARK   55  A    between atoms: _152  and  _155
REMARK   56  A    between atoms: _155  and  _156
REMARK   57  A    between atoms: _156  and  _157
REMARK   58  A    between atoms: _157  and  _158
REMARK   59  A    between atoms: _167  and  _169
REMARK   60  A    between atoms: _169  and  _170
REMARK   61  A    between atoms: _169  and  _172
REMARK   62  A    between atoms: _175  and  _177
REMARK   63  A    between atoms: _177  and  _178
REMARK   64  A    between atoms: _177  and  _180
REMARK   65  A    between atoms: _180  and  _181
REMARK   66  A    between atoms: _181  and  _182
REMARK   67  A    between atoms: _182  and  _183
REMARK   68  A    between atoms: _193  and  _194
REMARK   69  A    between atoms: _199  and  _201
REMARK   70  A    between atoms: _201  and  _202
REMARK   71  A    between atoms: _201  and  _204
REMARK   72  A    between atoms: _206  and  _208
REMARK   73  A    between atoms: _208  and  _209
REMARK   74  A    between atoms: _208  and  _211
REMARK   75  A    between atoms: _211  and  _212
REMARK   76  A    between atoms: _212  and  _213
REMARK   77  A    between atoms: _217  and  _218
REMARK   78  A    between atoms: _224  and  _225
REMARK   79  A    between atoms: _230  and  _232
REMARK   80  A    between atoms: _232  and  _233
REMARK   81  A    between atoms: _232  and  _235
REMARK   82  A    between atoms: _235  and  _236
REMARK   83  A    between atoms: _236  and  _237
REMARK   84  A    between atoms: _240  and  _242
REMARK   85  A    between atoms: _242  and  _243
REMARK   86  A    between atoms: _242  and  _245
REMARK   87  A    between atoms: _245  and  _246
REMARK   88  A    between atoms: _248  and  _250
REMARK   89  A    between atoms: _250  and  _251
REMARK   90  A    between atoms: _250  and  _253
REMARK   91  A    between atoms: _253  and  _254
REMARK   92  A    between atoms: _257  and  _259
REMARK   93  A    between atoms: _259  and  _260
REMARK   94  A    between atoms: _259  and  _262
REMARK   95  A    between atoms: _264  and  _266
REMARK   96  A    between atoms: _266  and  _267
REMARK   97  A    between atoms: _266  and  _269
REMARK   98  A    between atoms: _269  and  _270
REMARK   99  A    between atoms: _273  and  _275
REMARK  100  A    between atoms: _275  and  _276
REMARK  101  A    between atoms: _275  and  _278
REMARK  102  A    between atoms: _278  and  _279
REMARK  103  A    between atoms: _282  and  _284
REMARK  104  A    between atoms: _284  and  _285
REMARK  105  A    between atoms: _284  and  _287
REMARK  106  A    between atoms: _287  and  _288
REMARK                            x       y       z     vdW  Elec       q    Type
REMARK                         _______ _______ _______ _____ _____    ______ ____
ROOT
ATOM      1  CA  LEU A   1     100.338  87.939 -42.205  0.00  0.00    +0.133 C 
ENDROOT
BRANCH   1   2
ATOM      2  N   LEU A   1     101.125  87.683 -41.015  0.00  0.00    -0.239 NA
ATOM      3  H   LEU A   1     101.870  88.361 -40.756  0.00  0.00    +0.142 HD
ENDBRANCH   1   2
BRANCH   1   4
ATOM      4  C   LEU A   1     101.140  87.333 -43.357  0.00  0.00    +0.224 C 
ATOM      5  O   LEU A   1     102.345  87.583 -43.462  0.00  0.00    -0.287 OA
ENDBRANCH   1   4
BRANCH   1   6
ATOM      6  CB  LEU A   1     100.182  89.445 -42.395  0.00  0.00    +0.025 C 
BRANCH   6   7
ATOM      7  CG  LEU A   1      99.201  89.875 -43.472  0.00  0.00    +0.002 C 
ATOM      8  CD2 LEU A   1      97.777  89.581 -43.044  0.00  0.00    +0.000 C 
ATOM      9  CD1 LEU A   1      99.364  91.368 -43.766  0.00  0.00    +0.000 C 
ENDBRANCH   6   7
ENDBRANCH   1   6
TORSDOF 4
REMARK  Name = ../refined-set-2016/4agq/4agq_pocket.pdb
REMARK  106 active torsions:
REMARK  status: ('A' for Active; 'I' for Inactive)
REMARK    1  A    between atoms: _1  and  _3
REMARK    2  A    between atoms: _3  and  _4
REMARK    3  A    between atoms: _3  and  _6
REMARK    4  A    between atoms: _6  and  _7
REMARK    5  A    between atoms: _12  and  _13
REMARK    6  A    between atoms: _15  and  _17
REMARK    7  A    between atoms: _17  and  _18
REMARK    8  A    between atoms: _17  and  _20
REMARK    9  A    between atoms: _20  and  _21
REMARK   10  A    between atoms: _27  and  _29
REMARK   11  A    between atoms: _29  and  _30
REMARK   12  A    between atoms: _29  and  _32
REMARK   13  A    between atoms: _32  and  _33
REMARK   14  A    between atoms: _33  and  _34
REMARK   15  A    between atoms: _34  and  _35
REMARK   16  A    between atoms: _44  and  _46
REMARK   17  A    between atoms: _46  and  _47
REMARK   18  A    between atoms: _46  and  _49
REMARK   19  A    between atoms: _49  and  _50
REMARK   20  A    between atoms: _50  and  _51
REMARK   21  A    between atoms: _56  and  _58
REMARK   22  A    between atoms: _58  and  _59
REMARK   23  A    between atoms: _58  and  _61
REMARK   24  A    between atoms: _61  and  _62
REMARK   25  A    between atoms: _65  and  _67
REMARK   26  A    between atoms: _67  and  _68
REMARK   27  A    between atoms: _67  and  _70
REMARK   28  A    between atoms: _70  and  _71
REMARK   29  A    between atoms: _81  and  _83
REMARK   30  A    between atoms: _83  and  _84
REMARK   31  A    between atoms: _83  and  _86
REMARK   32  A    between atoms: _89  and  _91
REMARK   33  A    between atoms: _91  and  _92
REMARK   34  A    between atoms: _91  and  _94
REMARK   35  A    between atoms: _94  and  _95
REMARK   36  A    between atoms: _98  and  _100
REMARK   37  A    between atoms: _100  and  _101
REMARK   38  A    between atoms: _100  and  _103
REMARK   39  A    between atoms: _103  and  _104
REMARK   40  A    between atoms: _106  and  _108
REMARK   41  A    between atoms: _108  and  _109
REMARK   42  A    between atoms: _108  and  _111
REMARK   43  A    between atoms: _111  and  _112
REMARK   44  A    between atoms: _116  and  _117
REMARK   45  A    between atoms: _123  and  _124
REMARK   46  A    between atoms: _130  and  _131
REMARK   47  A    between atoms: _136  and  _138
REMARK   48  A    between atoms: _138  and  _139
REMARK   49  A    between atoms: _141  and  _143
REMARK   50  A    between atoms: _143  and  _144
REMARK   51  A    between atoms: _143  and  _146
REMARK   52  A    between atoms: _146  and  _147
REMARK   53  A    between atoms: _150  and  _152
REMARK   54  A    between atoms: _152  and  _153
REMARK   55  A    between atoms: _152  and  _155
REMARK   56  A    between atoms: _155  and  _156
REMARK   57  A    between atoms: _156  and  _157
REMARK   58  A    between atoms: _157  and  _158
REMARK   59  A    between atoms: _167  and  _169
REMARK   60  A    between atoms: _169  and  _170
REMARK   61  A    between atoms: _169  and  _172
REMARK   62  A    between atoms: _175  and  _177
REMARK   63  A    between atoms: _177  and  _178
REMARK   64  A    between atoms: _177  and  _180
REMARK   65  A    between atoms: _180  and  _181
REMARK   66  A    between atoms: _181  and  _182
REMARK   67  A    between atoms: _182  and  _183
REMARK   68  A    between atoms: _193  and  _194
REMARK   69  A    between atoms: _199  and  _201
REMARK   70  A    between atoms: _201  and  _202
REMARK   71  A    between atoms: _201  and  _204
REMARK   72  A    between atoms: _206  and  _208
REMARK   73  A    between atoms: _208  and  _209
REMARK   74  A    between atoms: _208  and  _211
REMARK   75  A    between atoms: _211  and  _212
REMARK   76  A    between atoms: _212  and  _213
REMARK   77  A    between atoms: _217  and  _218
REMARK   78  A    between atoms: _224  and  _225
REMARK   79  A    between atoms: _230  and  _232
REMARK   80  A    between atoms: _232  and  _233
REMARK   81  A    between atoms: _232  and  _235
REMARK   82  A    between atoms: _235  and  _236
REMARK   83  A    between atoms: _236  and  _237
REMARK   84  A    between atoms: _240  and  _242
REMARK   85  A    between atoms: _242  and  _243
REMARK   86  A    between atoms: _242  and  _245
REMARK   87  A    between atoms: _245  and  _246
REMARK   88  A    between atoms: _248  and  _250
REMARK   89  A    between atoms: _250  and  _251
REMARK   90  A    between atoms: _250  and  _253
REMARK   91  A    between atoms: _253  and  _254
REMARK   92  A    between atoms: _257  and  _259
REMARK   93  A    between atoms: _259  and  _260
REMARK   94  A    between atoms: _259  and  _262
REMARK   95  A    between atoms: _264  and  _266
REMARK   96  A    between atoms: _266  and  _267
REMARK   97  A    between atoms: _266  and  _269
REMARK   98  A    between atoms: _269  and  _270
REMARK   99  A    between atoms: _273  and  _275
REMARK  100  A    between atoms: _275  and  _276
REMARK  101  A    between atoms: _275  and  _278
REMARK  102  A    between atoms: _278  and  _279
REMARK  103  A    between atoms: _282  and  _284
REMARK  104  A    between atoms: _284  and  _285
REMARK  105  A    between atoms: _284  and  _287
REMARK  106  A    between atoms: _287  and  _288
REMARK                            x       y       z     vdW  Elec       q    Type
REMARK                         _______ _______ _______ _____ _____    ______ ____
ROOT
ATOM      1  O   HOH     1     100.282 100.422 -46.218  0.00  0.00    +0.000 OA
ENDROOT
TORSDOF 0
REMARK  Name = ../refined-set-2016/4agq/4agq_pocket.pdb
REMARK  106 active torsions:
REMARK  status: ('A' for Active; 'I' for Inactive)
REMARK    1  A    between atoms: _1  and  _3
REMARK    2  A    between atoms: _3  and  _4
REMARK    3  A    between atoms: _3  and  _6
REMARK    4  A    between atoms: _6  and  _7
REMARK    5  A    between atoms: _12  and  _13
REMARK    6  A    between atoms: _15  and  _17
REMARK    7  A    between atoms: _17  and  _18
REMARK    8  A    between atoms: _17  and  _20
REMARK    9  A    between atoms: _20  and  _21
REMARK   10  A    between atoms: _27  and  _29
REMARK   11  A    between atoms: _29  and  _30
REMARK   12  A    between atoms: _29  and  _32
REMARK   13  A    between atoms: _32  and  _33
REMARK   14  A    between atoms: _33  and  _34
REMARK   15  A    between atoms: _34  and  _35
REMARK   16  A    between atoms: _44  and  _46
REMARK   17  A    between atoms: _46  and  _47
REMARK   18  A    between atoms: _46  and  _49
REMARK   19  A    between atoms: _49  and  _50
REMARK   20  A    between atoms: _50  and  _51
REMARK   21  A    between atoms: _56  and  _58
REMARK   22  A    between atoms: _58  and  _59
REMARK   23  A    between atoms: _58  and  _61
REMARK   24  A    between atoms: _61  and  _62
REMARK   25  A    between atoms: _65  and  _67
REMARK   26  A    between atoms: _67  and  _68
REMARK   27  A    between atoms: _67  and  _70
REMARK   28  A    between atoms: _70  and  _71
REMARK   29  A    between atoms: _81  and  _83
REMARK   30  A    between atoms: _83  and  _84
REMARK   31  A    between atoms: _83  and  _86
REMARK   32  A    between atoms: _89  and  _91
REMARK   33  A    between atoms: _91  and  _92
REMARK   34  A    between atoms: _91  and  _94
REMARK   35  A    between atoms: _94  and  _95
REMARK   36  A    between atoms: _98  and  _100
REMARK   37  A    between atoms: _100  and  _101
REMARK   38  A    between atoms: _100  and  _103
REMARK   39  A    between atoms: _103  and  _104
REMARK   40  A    between atoms: _106  and  _108
REMARK   41  A    between atoms: _108  and  _109
REMARK   42  A    between atoms: _108  and  _111
REMARK   43  A    between atoms: _111  and  _112
REMARK   44  A    between atoms: _116  and  _117
REMARK   45  A    between atoms: _123  and  _124
REMARK   46  A    between atoms: _130  and  _131
REMARK   47  A    between atoms: _136  and  _138
REMARK   48  A    between atoms: _138  and  _139
REMARK   49  A    between atoms: _141  and  _143
REMARK   50  A    between atoms: _143  and  _144
REMARK   51  A    between atoms: _143  and  _146
REMARK   52  A    between atoms: _146  and  _147
REMARK   53  A    between atoms: _150  and  _152
REMARK   54  A    between atoms: _152  and  _153
REMARK   55  A    between atoms: _152  and  _155
REMARK   56  A    between atoms: _155  and  _156
REMARK   57  A    between atoms: _156  and  _157
REMARK   58  A    between atoms: _157  and  _158
REMARK   59  A    between atoms: _167  and  _169
REMARK   60  A    between atoms: _169  and  _170
REMARK   61  A    between atoms: _169  and  _172
REMARK   62  A    between atoms: _175  and  _177
REMARK   63  A    between atoms: _177  and  _178
REMARK   64  A    between atoms: _177  and  _180
REMARK   65  A    between atoms: _180  and  _181
REMARK   66  A    between atoms: _181  and  _182
REMARK   67  A    between atoms: _182  and  _183
REMARK   68  A    between atoms: _193  and  _194
REMARK   69  A    between atoms: _199  and  _201
REMARK   70  A    between atoms: _201  and  _202
REMARK   71  A    between atoms: _201  and  _204
REMARK   72  A    between atoms: _206  and  _208
REMARK   73  A    between atoms: _208  and  _209
REMARK   74  A    between atoms: _208  and  _211
REMARK   75  A    between atoms: _211  and  _212
REMARK   76  A    between atoms: _212  and  _213
REMARK   77  A    between atoms: _217  and  _218
REMARK   78  A    between atoms: _224  and  _225
REMARK   79  A    between atoms: _230  and  _232
REMARK   80  A    between atoms: _232  and  _233
REMARK   81  A    between atoms: _232  and  _235
REMARK   82  A    between atoms: _235  and  _236
REMARK   83  A    between atoms: _236  and  _237
REMARK   84  A    between atoms: _240  and  _242
REMARK   85  A    between atoms: _242  and  _243
REMARK   86  A    between atoms: _242  and  _245
REMARK   87  A    between atoms: _245  and  _246
REMARK   88  A    between atoms: _248  and  _250
REMARK   89  A    between atoms: _250  and  _251
REMARK   90  A    between atoms: _250  and  _253
REMARK   91  A    between atoms: _253  and  _254
REMARK   92  A    between atoms: _257  and  _259
REMARK   93  A    between atoms: _259  and  _260
REMARK   94  A    between atoms: _259  and  _262
REMARK   95  A    between atoms: _264  and  _266
REMARK   96  A    between atoms: _266  and  _267
REMARK   97  A    between atoms: _266  and  _269
REMARK   98  A    between atoms: _269  and  _270
REMARK   99  A    between atoms: _273  and  _275
REMARK  100  A    between atoms: _275  and  _276
REMARK  101  A    between atoms: _275  and  _278
REMARK  102  A    between atoms: _278  and  _279
REMARK  103  A    between atoms: _282  and  _284
REMARK  104  A    between atoms: _284  and  _285
REMARK  105  A    between atoms: _284  and  _287
REMARK  106  A    between atoms: _287  and  _288
REMARK                            x       y       z     vdW  Elec       q    Type
REMARK                         _______ _______ _______ _____ _____    ______ ____
ROOT
ATOM      1  O   HOH     1      95.456 102.719 -40.010  0.00  0.00    +0.000 OA
ENDROOT
TORSDOF 0
REMARK  Name = ../refined-set-2016/4agq/4agq_pocket.pdb
REMARK  106 active torsions:
REMARK  status: ('A' for Active; 'I' for Inactive)
REMARK    1  A    between atoms: _1  and  _3
REMARK    2  A    between atoms: _3  and  _4
REMARK    3  A    between atoms: _3  and  _6
REMARK    4  A    between atoms: _6  and  _7
REMARK    5  A    between atoms: _12  and  _13
REMARK    6  A    between atoms: _15  and  _17
REMARK    7  A    between atoms: _17  and  _18
REMARK    8  A    between atoms: _17  and  _20
REMARK    9  A    between atoms: _20  and  _21
REMARK   10  A    between atoms: _27  and  _29
REMARK   11  A    between atoms: _29  and  _30
REMARK   12  A    between atoms: _29  and  _32
REMARK   13  A    between atoms: _32  and  _33
REMARK   14  A    between atoms: _33  and  _34
REMARK   15  A    between atoms: _34  and  _35
REMARK   16  A    between atoms: _44  and  _46
REMARK   17  A    between atoms: _46  and  _47
REMARK   18  A    between atoms: _46  and  _49
REMARK   19  A    between atoms: _49  and  _50
REMARK   20  A    between atoms: _50  and  _51
REMARK   21  A    between atoms: _56  and  _58
REMARK   22  A    between atoms: _58  and  _59
REMARK   23  A    between atoms: _58  and  _61
REMARK   24  A    between atoms: _61  and  _62
REMARK   25  A    between atoms: _65  and  _67
REMARK   26  A    between atoms: _67  and  _68
REMARK   27  A    between atoms: _67  and  _70
REMARK   28  A    between atoms: _70  and  _71
REMARK   29  A    between atoms: _81  and  _83
REMARK   30  A    between atoms: _83  and  _84
REMARK   31  A    between atoms: _83  and  _86
REMARK   32  A    between atoms: _89  and  _91
REMARK   33  A    between atoms: _91  and  _92
REMARK   34  A    between atoms: _91  and  _94
REMARK   35  A    between atoms: _94  and  _95
REMARK   36  A    between atoms: _98  and  _100
REMARK   37  A    between atoms: _100  and  _101
REMARK   38  A    between atoms: _100  and  _103
REMARK   39  A    between atoms: _103  and  _104
REMARK   40  A    between atoms: _106  and  _108
REMARK   41  A    between atoms: _108  and  _109
REMARK   42  A    between atoms: _108  and  _111
REMARK   43  A    between atoms: _111  and  _112
REMARK   44  A    between atoms: _116  and  _117
REMARK   45  A    between atoms: _123  and  _124
REMARK   46  A    between atoms: _130  and  _131
REMARK   47  A    between atoms: _136  and  _138
REMARK   48  A    between atoms: _138  and  _139
REMARK   49  A    between atoms: _141  and  _143
REMARK   50  A    between atoms: _143  and  _144
REMARK   51  A    between atoms: _143  and  _146
REMARK   52  A    between atoms: _146  and  _147
REMARK   53  A    between atoms: _150  and  _152
REMARK   54  A    between atoms: _152  and  _153
REMARK   55  A    between atoms: _152  and  _155
REMARK   56  A    between atoms: _155  and  _156
REMARK   57  A    between atoms: _156  and  _157
REMARK   58  A    between atoms: _157  and  _158
REMARK   59  A    between atoms: _167  and  _169
REMARK   60  A    between atoms: _169  and  _170
REMARK   61  A    between atoms: _169  and  _172
REMARK   62  A    between atoms: _175  and  _177
REMARK   63  A    between atoms: _177  and  _178
REMARK   64  A    between atoms: _177  and  _180
REMARK   65  A    between atoms: _180  and  _181
REMARK   66  A    between atoms: _181  and  _182
REMARK   67  A    between atoms: _182  and  _183
REMARK   68  A    between atoms: _193  and  _194
REMARK   69  A    between atoms: _199  and  _201
REMARK   70  A    between atoms: _201  and  _202
REMARK   71  A    between atoms: _201  and  _204
REMARK   72  A    between atoms: _206  and  _208
REMARK   73  A    between atoms: _208  and  _209
REMARK   74  A    between atoms: _208  and  _211
REMARK   75  A    between atoms: _211  and  _212
REMARK   76  A    between atoms: _212  and  _213
REMARK   77  A    between atoms: _217  and  _218
REMARK   78  A    between atoms: _224  and  _225
REMARK   79  A    between atoms: _230  and  _232
REMARK   80  A    between atoms: _232  and  _233
REMARK   81  A    between atoms: _232  and  _235
REMARK   82  A    between atoms: _235  and  _236
REMARK   83  A    between atoms: _236  and  _237
REMARK   84  A    between atoms: _240  and  _242
REMARK   85  A    between atoms: _242  and  _243
REMARK   86  A    between atoms: _242  and  _245
REMARK   87  A    between atoms: _245  and  _246
REMARK   88  A    between atoms: _248  and  _250
REMARK   89  A    between atoms: _250  and  _251
REMARK   90  A    between atoms: _250  and  _253
REMARK   91  A    between atoms: _253  and  _254
REMARK   92  A    between atoms: _257  and  _259
REMARK   93  A    between atoms: _259  and  _260
REMARK   94  A    between atoms: _259  and  _262
REMARK   95  A    between atoms: _264  and  _266
REMARK   96  A    between atoms: _266  and  _267
REMARK   97  A    between atoms: _266  and  _269
REMARK   98  A    between atoms: _269  and  _270
REMARK   99  A    between atoms: _273  and  _275
REMARK  100  A    between atoms: _275  and  _276
REMARK  101  A    between atoms: _275  and  _278
REMARK  102  A    between atoms: _278  and  _279
REMARK  103  A    between atoms: _282  and  _284
REMARK  104  A    between atoms: _284  and  _285
REMARK  105  A    between atoms: _284  and  _287
REMARK  106  A    between atoms: _287  and  _288
REMARK                            x       y       z     vdW  Elec       q    Type
REMARK                         _______ _______ _______ _____ _____    ______ ____
ROOT
ATOM      1  O   HOH     1      99.776 103.037 -46.741  0.00  0.00    +0.000 OA
ENDROOT
TORSDOF 0
REMARK  Name = ../refined-set-2016/4agq/4agq_pocket.pdb
REMARK  106 active torsions:
REMARK  status: ('A' for Active; 'I' for Inactive)
REMARK    1  A    between atoms: _1  and  _3
REMARK    2  A    between atoms: _3  and  _4
REMARK    3  A    between atoms: _3  and  _6
REMARK    4  A    between atoms: _6  and  _7
REMARK    5  A    between atoms: _12  and  _13
REMARK    6  A    between atoms: _15  and  _17
REMARK    7  A    between atoms: _17  and  _18
REMARK    8  A    between atoms: _17  and  _20
REMARK    9  A    between atoms: _20  and  _21
REMARK   10  A    between atoms: _27  and  _29
REMARK   11  A    between atoms: _29  and  _30
REMARK   12  A    between atoms: _29  and  _32
REMARK   13  A    between atoms: _32  and  _33
REMARK   14  A    between atoms: _33  and  _34
REMARK   15  A    between atoms: _34  and  _35
REMARK   16  A    between atoms: _44  and  _46
REMARK   17  A    between atoms: _46  and  _47
REMARK   18  A    between atoms: _46  and  _49
REMARK   19  A    between atoms: _49  and  _50
REMARK   20  A    between atoms: _50  and  _51
REMARK   21  A    between atoms: _56  and  _58
REMARK   22  A    between atoms: _58  and  _59
REMARK   23  A    between atoms: _58  and  _61
REMARK   24  A    between atoms: _61  and  _62
REMARK   25  A    between atoms: _65  and  _67
REMARK   26  A    between atoms: _67  and  _68
REMARK   27  A    between atoms: _67  and  _70
REMARK   28  A    between atoms: _70  and  _71
REMARK   29  A    between atoms: _81  and  _83
REMARK   30  A    between atoms: _83  and  _84
REMARK   31  A    between atoms: _83  and  _86
REMARK   32  A    between atoms: _89  and  _91
REMARK   33  A    between atoms: _91  and  _92
REMARK   34  A    between atoms: _91  and  _94
REMARK   35  A    between atoms: _94  and  _95
REMARK   36  A    between atoms: _98  and  _100
REMARK   37  A    between atoms: _100  and  _101
REMARK   38  A    between atoms: _100  and  _103
REMARK   39  A    between atoms: _103  and  _104
REMARK   40  A    between atoms: _106  and  _108
REMARK   41  A    between atoms: _108  and  _109
REMARK   42  A    between atoms: _108  and  _111
REMARK   43  A    between atoms: _111  and  _112
REMARK   44  A    between atoms: _116  and  _117
REMARK   45  A    between atoms: _123  and  _124
REMARK   46  A    between atoms: _130  and  _131
REMARK   47  A    between atoms: _136  and  _138
REMARK   48  A    between atoms: _138  and  _139
REMARK   49  A    between atoms: _141  and  _143
REMARK   50  A    between atoms: _143  and  _144
REMARK   51  A    between atoms: _143  and  _146
REMARK   52  A    between atoms: _146  and  _147
REMARK   53  A    between atoms: _150  and  _152
REMARK   54  A    between atoms: _152  and  _153
REMARK   55  A    between atoms: _152  and  _155
REMARK   56  A    between atoms: _155  and  _156
REMARK   57  A    between atoms: _156  and  _157
REMARK   58  A    between atoms: _157  and  _158
REMARK   59  A    between atoms: _167  and  _169
REMARK   60  A    between atoms: _169  and  _170
REMARK   61  A    between atoms: _169  and  _172
REMARK   62  A    between atoms: _175  and  _177
REMARK   63  A    between atoms: _177  and  _178
REMARK   64  A    between atoms: _177  and  _180
REMARK   65  A    between atoms: _180  and  _181
REMARK   66  A    between atoms: _181  and  _182
REMARK   67  A    between atoms: _182  and  _183
REMARK   68  A    between atoms: _193  and  _194
REMARK   69  A    between atoms: _199  and  _201
REMARK   70  A    between atoms: _201  and  _202
REMARK   71  A    between atoms: _201  and  _204
REMARK   72  A    between atoms: _206  and  _208
REMARK   73  A    between atoms: _208  and  _209
REMARK   74  A    between atoms: _208  and  _211
REMARK   75  A    between atoms: _211  and  _212
REMARK   76  A    between atoms: _212  and  _213
REMARK   77  A    between atoms: _217  and  _218
REMARK   78  A    between atoms: _224  and  _225
REMARK   79  A    between atoms: _230  and  _232
REMARK   80  A    between atoms: _232  and  _233
REMARK   81  A    between atoms: _232  and  _235
REMARK   82  A    between atoms: _235  and  _236
REMARK   83  A    between atoms: _236  and  _237
REMARK   84  A    between atoms: _240  and  _242
REMARK   85  A    between atoms: _242  and  _243
REMARK   86  A    between atoms: _242  and  _245
REMARK   87  A    between atoms: _245  and  _246
REMARK   88  A    between atoms: _248  and  _250
REMARK   89  A    between atoms: _250  and  _251
REMARK   90  A    between atoms: _250  and  _253
REMARK   91  A    between atoms: _253  and  _254
REMARK   92  A    between atoms: _257  and  _259
REMARK   93  A    between atoms: _259  and  _260
REMARK   94  A    between atoms: _259  and  _262
REMARK   95  A    between atoms: _264  and  _266
REMARK   96  A    between atoms: _266  and  _267
REMARK   97  A    between atoms: _266  and  _269
REMARK   98  A    between atoms: _269  and  _270
REMARK   99  A    between atoms: _273  and  _275
REMARK  100  A    between atoms: _275  and  _276
REMARK  101  A    between atoms: _275  and  _278
REMARK  102  A    between atoms: _278  and  _279
REMARK  103  A    between atoms: _282  and  _284
REMARK  104  A    between atoms: _284  and  _285
REMARK  105  A    between atoms: _284  and  _287
REMARK  106  A    between atoms: _287  and  _288
REMARK                            x       y       z     vdW  Elec       q    Type
REMARK                         _______ _______ _______ _____ _____    ______ ____
ROOT
ATOM      1  O   HOH     1      95.401 105.292 -40.670  0.00  0.00    +0.000 OA
ENDROOT
TORSDOF 0
REMARK  Name = ../refined-set-2016/4agq/4agq_pocket.pdb
REMARK  106 active torsions:
REMARK  status: ('A' for Active; 'I' for Inactive)
REMARK    1  A    between atoms: _1  and  _3
REMARK    2  A    between atoms: _3  and  _4
REMARK    3  A    between atoms: _3  and  _6
REMARK    4  A    between atoms: _6  and  _7
REMARK    5  A    between atoms: _12  and  _13
REMARK    6  A    between atoms: _15  and  _17
REMARK    7  A    between atoms: _17  and  _18
REMARK    8  A    between atoms: _17  and  _20
REMARK    9  A    between atoms: _20  and  _21
REMARK   10  A    between atoms: _27  and  _29
REMARK   11  A    between atoms: _29  and  _30
REMARK   12  A    between atoms: _29  and  _32
REMARK   13  A    between atoms: _32  and  _33
REMARK   14  A    between atoms: _33  and  _34
REMARK   15  A    between atoms: _34  and  _35
REMARK   16  A    between atoms: _44  and  _46
REMARK   17  A    between atoms: _46  and  _47
REMARK   18  A    between atoms: _46  and  _49
REMARK   19  A    between atoms: _49  and  _50
REMARK   20  A    between atoms: _50  and  _51
REMARK   21  A    between atoms: _56  and  _58
REMARK   22  A    between atoms: _58  and  _59
REMARK   23  A    between atoms: _58  and  _61
REMARK   24  A    between atoms: _61  and  _62
REMARK   25  A    between atoms: _65  and  _67
REMARK   26  A    between atoms: _67  and  _68
REMARK   27  A    between atoms: _67  and  _70
REMARK   28  A    between atoms: _70  and  _71
REMARK   29  A    between atoms: _81  and  _83
REMARK   30  A    between atoms: _83  and  _84
REMARK   31  A    between atoms: _83  and  _86
REMARK   32  A    between atoms: _89  and  _91
REMARK   33  A    between atoms: _91  and  _92
REMARK   34  A    between atoms: _91  and  _94
REMARK   35  A    between atoms: _94  and  _95
REMARK   36  A    between atoms: _98  and  _100
REMARK   37  A    between atoms: _100  and  _101
REMARK   38  A    between atoms: _100  and  _103
REMARK   39  A    between atoms: _103  and  _104
REMARK   40  A    between atoms: _106  and  _108
REMARK   41  A    between atoms: _108  and  _109
REMARK   42  A    between atoms: _108  and  _111
REMARK   43  A    between atoms: _111  and  _112
REMARK   44  A    between atoms: _116  and  _117
REMARK   45  A    between atoms: _123  and  _124
REMARK   46  A    between atoms: _130  and  _131
REMARK   47  A    between atoms: _136  and  _138
REMARK   48  A    between atoms: _138  and  _139
REMARK   49  A    between atoms: _141  and  _143
REMARK   50  A    between atoms: _143  and  _144
REMARK   51  A    between atoms: _143  and  _146
REMARK   52  A    between atoms: _146  and  _147
REMARK   53  A    between atoms: _150  and  _152
REMARK   54  A    between atoms: _152  and  _153
REMARK   55  A    between atoms: _152  and  _155
REMARK   56  A    between atoms: _155  and  _156
REMARK   57  A    between atoms: _156  and  _157
REMARK   58  A    between atoms: _157  and  _158
REMARK   59  A    between atoms: _167  and  _169
REMARK   60  A    between atoms: _169  and  _170
REMARK   61  A    between atoms: _169  and  _172
REMARK   62  A    between atoms: _175  and  _177
REMARK   63  A    between atoms: _177  and  _178
REMARK   64  A    between atoms: _177  and  _180
REMARK   65  A    between atoms: _180  and  _181
REMARK   66  A    between atoms: _181  and  _182
REMARK   67  A    between atoms: _182  and  _183
REMARK   68  A    between atoms: _193  and  _194
REMARK   69  A    between atoms: _199  and  _201
REMARK   70  A    between atoms: _201  and  _202
REMARK   71  A    between atoms: _201  and  _204
REMARK   72  A    between atoms: _206  and  _208
REMARK   73  A    between atoms: _208  and  _209
REMARK   74  A    between atoms: _208  and  _211
REMARK   75  A    between atoms: _211  and  _212
REMARK   76  A    between atoms: _212  and  _213
REMARK   77  A    between atoms: _217  and  _218
REMARK   78  A    between atoms: _224  and  _225
REMARK   79  A    between atoms: _230  and  _232
REMARK   80  A    between atoms: _232  and  _233
REMARK   81  A    between atoms: _232  and  _235
REMARK   82  A    between atoms: _235  and  _236
REMARK   83  A    between atoms: _236  and  _237
REMARK   84  A    between atoms: _240  and  _242
REMARK   85  A    between atoms: _242  and  _243
REMARK   86  A    between atoms: _242  and  _245
REMARK   87  A    between atoms: _245  and  _246
REMARK   88  A    between atoms: _248  and  _250
REMARK   89  A    between atoms: _250  and  _251
REMARK   90  A    between atoms: _250  and  _253
REMARK   91  A    between atoms: _253  and  _254
REMARK   92  A    between atoms: _257  and  _259
REMARK   93  A    between atoms: _259  and  _260
REMARK   94  A    between atoms: _259  and  _262
REMARK   95  A    between atoms: _264  and  _266
REMARK   96  A    between atoms: _266  and  _267
REMARK   97  A    between atoms: _266  and  _269
REMARK   98  A    between atoms: _269  and  _270
REMARK   99  A    between atoms: _273  and  _275
REMARK  100  A    between atoms: _275  and  _276
REMARK  101  A    between atoms: _275  and  _278
REMARK  102  A    between atoms: _278  and  _279
REMARK  103  A    between atoms: _282  and  _284
REMARK  104  A    between atoms: _284  and  _285
REMARK  105  A    between atoms: _284  and  _287
REMARK  106  A    between atoms: _287  and  _288
REMARK                            x       y       z     vdW  Elec       q    Type
REMARK                         _______ _______ _______ _____ _____    ______ ____
ROOT
ATOM      1  O   HOH     1      92.362  97.905 -40.349  0.00  0.00    +0.000 OA
ENDROOT
TORSDOF 0
REMARK  Name = ../refined-set-2016/4agq/4agq_pocket.pdb
REMARK  106 active torsions:
REMARK  status: ('A' for Active; 'I' for Inactive)
REMARK    1  A    between atoms: _1  and  _3
REMARK    2  A    between atoms: _3  and  _4
REMARK    3  A    between atoms: _3  and  _6
REMARK    4  A    between atoms: _6  and  _7
REMARK    5  A    between atoms: _12  and  _13
REMARK    6  A    between atoms: _15  and  _17
REMARK    7  A    between atoms: _17  and  _18
REMARK    8  A    between atoms: _17  and  _20
REMARK    9  A    between atoms: _20  and  _21
REMARK   10  A    between atoms: _27  and  _29
REMARK   11  A    between atoms: _29  and  _30
REMARK   12  A    between atoms: _29  and  _32
REMARK   13  A    between atoms: _32  and  _33
REMARK   14  A    between atoms: _33  and  _34
REMARK   15  A    between atoms: _34  and  _35
REMARK   16  A    between atoms: _44  and  _46
REMARK   17  A    between atoms: _46  and  _47
REMARK   18  A    between atoms: _46  and  _49
REMARK   19  A    between atoms: _49  and  _50
REMARK   20  A    between atoms: _50  and  _51
REMARK   21  A    between atoms: _56  and  _58
REMARK   22  A    between atoms: _58  and  _59
REMARK   23  A    between atoms: _58  and  _61
REMARK   24  A    between atoms: _61  and  _62
REMARK   25  A    between atoms: _65  and  _67
REMARK   26  A    between atoms: _67  and  _68
REMARK   27  A    between atoms: _67  and  _70
REMARK   28  A    between atoms: _70  and  _71
REMARK   29  A    between atoms: _81  and  _83
REMARK   30  A    between atoms: _83  and  _84
REMARK   31  A    between atoms: _83  and  _86
REMARK   32  A    between atoms: _89  and  _91
REMARK   33  A    between atoms: _91  and  _92
REMARK   34  A    between atoms: _91  and  _94
REMARK   35  A    between atoms: _94  and  _95
REMARK   36  A    between atoms: _98  and  _100
REMARK   37  A    between atoms: _100  and  _101
REMARK   38  A    between atoms: _100  and  _103
REMARK   39  A    between atoms: _103  and  _104
REMARK   40  A    between atoms: _106  and  _108
REMARK   41  A    between atoms: _108  and  _109
REMARK   42  A    between atoms: _108  and  _111
REMARK   43  A    between atoms: _111  and  _112
REMARK   44  A    between atoms: _116  and  _117
REMARK   45  A    between atoms: _123  and  _124
REMARK   46  A    between atoms: _130  and  _131
REMARK   47  A    between atoms: _136  and  _138
REMARK   48  A    between atoms: _138  and  _139
REMARK   49  A    between atoms: _141  and  _143
REMARK   50  A    between atoms: _143  and  _144
REMARK   51  A    between atoms: _143  and  _146
REMARK   52  A    between atoms: _146  and  _147
REMARK   53  A    between atoms: _150  and  _152
REMARK   54  A    between atoms: _152  and  _153
REMARK   55  A    between atoms: _152  and  _155
REMARK   56  A    between atoms: _155  and  _156
REMARK   57  A    between atoms: _156  and  _157
REMARK   58  A    between atoms: _157  and  _158
REMARK   59  A    between atoms: _167  and  _169
REMARK   60  A    between atoms: _169  and  _170
REMARK   61  A    between atoms: _169  and  _172
REMARK   62  A    between atoms: _175  and  _177
REMARK   63  A    between atoms: _177  and  _178
REMARK   64  A    between atoms: _177  and  _180
REMARK   65  A    between atoms: _180  and  _181
REMARK   66  A    between atoms: _181  and  _182
REMARK   67  A    between atoms: _182  and  _183
REMARK   68  A    between atoms: _193  and  _194
REMARK   69  A    between atoms: _199  and  _201
REMARK   70  A    between atoms: _201  and  _202
REMARK   71  A    between atoms: _201  and  _204
REMARK   72  A    between atoms: _206  and  _208
REMARK   73  A    between atoms: _208  and  _209
REMARK   74  A    between atoms: _208  and  _211
REMARK   75  A    between atoms: _211  and  _212
REMARK   76  A    between atoms: _212  and  _213
REMARK   77  A    between atoms: _217  and  _218
REMARK   78  A    between atoms: _224  and  _225
REMARK   79  A    between atoms: _230  and  _232
REMARK   80  A    between atoms: _232  and  _233
REMARK   81  A    between atoms: _232  and  _235
REMARK   82  A    between atoms: _235  and  _236
REMARK   83  A    between atoms: _236  and  _237
REMARK   84  A    between atoms: _240  and  _242
REMARK   85  A    between atoms: _242  and  _243
REMARK   86  A    between atoms: _242  and  _245
REMARK   87  A    between atoms: _245  and  _246
REMARK   88  A    between atoms: _248  and  _250
REMARK   89  A    between atoms: _250  and  _251
REMARK   90  A    between atoms: _250  and  _253
REMARK   91  A    between atoms: _253  and  _254
REMARK   92  A    between atoms: _257  and  _259
REMARK   93  A    between atoms: _259  and  _260
REMARK   94  A    between atoms: _259  and  _262
REMARK   95  A    between atoms: _264  and  _266
REMARK   96  A    between atoms: _266  and  _267
REMARK   97  A    between atoms: _266  and  _269
REMARK   98  A    between atoms: _269  and  _270
REMARK   99  A    between atoms: _273  and  _275
REMARK  100  A    between atoms: _275  and  _276
REMARK  101  A    between atoms: _275  and  _278
REMARK  102  A    between atoms: _278  and  _279
REMARK  103  A    between atoms: _282  and  _284
REMARK  104  A    between atoms: _284  and  _285
REMARK  105  A    between atoms: _284  and  _287
REMARK  106  A    between atoms: _287  and  _288
REMARK                            x       y       z     vdW  Elec       q    Type
REMARK                         _______ _______ _______ _____ _____    ______ ____
ROOT
ATOM      1  O   HOH     1      93.310 101.011 -40.340  0.00  0.00    +0.000 OA
ENDROOT
TORSDOF 0
REMARK  Name = ../refined-set-2016/4agq/4agq_pocket.pdb
REMARK  106 active torsions:
REMARK  status: ('A' for Active; 'I' for Inactive)
REMARK    1  A    between atoms: _1  and  _3
REMARK    2  A    between atoms: _3  and  _4
REMARK    3  A    between atoms: _3  and  _6
REMARK    4  A    between atoms: _6  and  _7
REMARK    5  A    between atoms: _12  and  _13
REMARK    6  A    between atoms: _15  and  _17
REMARK    7  A    between atoms: _17  and  _18
REMARK    8  A    between atoms: _17  and  _20
REMARK    9  A    between atoms: _20  and  _21
REMARK   10  A    between atoms: _27  and  _29
REMARK   11  A    between atoms: _29  and  _30
REMARK   12  A    between atoms: _29  and  _32
REMARK   13  A    between atoms: _32  and  _33
REMARK   14  A    between atoms: _33  and  _34
REMARK   15  A    between atoms: _34  and  _35
REMARK   16  A    between atoms: _44  and  _46
REMARK   17  A    between atoms: _46  and  _47
REMARK   18  A    between atoms: _46  and  _49
REMARK   19  A    between atoms: _49  and  _50
REMARK   20  A    between atoms: _50  and  _51
REMARK   21  A    between atoms: _56  and  _58
REMARK   22  A    between atoms: _58  and  _59
REMARK   23  A    between atoms: _58  and  _61
REMARK   24  A    between atoms: _61  and  _62
REMARK   25  A    between atoms: _65  and  _67
REMARK   26  A    between atoms: _67  and  _68
REMARK   27  A    between atoms: _67  and  _70
REMARK   28  A    between atoms: _70  and  _71
REMARK   29  A    between atoms: _81  and  _83
REMARK   30  A    between atoms: _83  and  _84
REMARK   31  A    between atoms: _83  and  _86
REMARK   32  A    between atoms: _89  and  _91
REMARK   33  A    between atoms: _91  and  _92
REMARK   34  A    between atoms: _91  and  _94
REMARK   35  A    between atoms: _94  and  _95
REMARK   36  A    between atoms: _98  and  _100
REMARK   37  A    between atoms: _100  and  _101
REMARK   38  A    between atoms: _100  and  _103
REMARK   39  A    between atoms: _103  and  _104
REMARK   40  A    between atoms: _106  and  _108
REMARK   41  A    between atoms: _108  and  _109
REMARK   42  A    between atoms: _108  and  _111
REMARK   43  A    between atoms: _111  and  _112
REMARK   44  A    between atoms: _116  and  _117
REMARK   45  A    between atoms: _123  and  _124
REMARK   46  A    between atoms: _130  and  _131
REMARK   47  A    between atoms: _136  and  _138
REMARK   48  A    between atoms: _138  and  _139
REMARK   49  A    between atoms: _141  and  _143
REMARK   50  A    between atoms: _143  and  _144
REMARK   51  A    between atoms: _143  and  _146
REMARK   52  A    between atoms: _146  and  _147
REMARK   53  A    between atoms: _150  and  _152
REMARK   54  A    between atoms: _152  and  _153
REMARK   55  A    between atoms: _152  and  _155
REMARK   56  A    between atoms: _155  and  _156
REMARK   57  A    between atoms: _156  and  _157
REMARK   58  A    between atoms: _157  and  _158
REMARK   59  A    between atoms: _167  and  _169
REMARK   60  A    between atoms: _169  and  _170
REMARK   61  A    between atoms: _169  and  _172
REMARK   62  A    between atoms: _175  and  _177
REMARK   63  A    between atoms: _177  and  _178
REMARK   64  A    between atoms: _177  and  _180
REMARK   65  A    between atoms: _180  and  _181
REMARK   66  A    between atoms: _181  and  _182
REMARK   67  A    between atoms: _182  and  _183
REMARK   68  A    between atoms: _193  and  _194
REMARK   69  A    between atoms: _199  and  _201
REMARK   70  A    between atoms: _201  and  _202
REMARK   71  A    between atoms: _201  and  _204
REMARK   72  A    between atoms: _206  and  _208
REMARK   73  A    between atoms: _208  and  _209
REMARK   74  A    between atoms: _208  and  _211
REMARK   75  A    between atoms: _211  and  _212
REMARK   76  A    between atoms: _212  and  _213
REMARK   77  A    between atoms: _217  and  _218
REMARK   78  A    between atoms: _224  and  _225
REMARK   79  A    between atoms: _230  and  _232
REMARK   80  A    between atoms: _232  and  _233
REMARK   81  A    between atoms: _232  and  _235
REMARK   82  A    between atoms: _235  and  _236
REMARK   83  A    between atoms: _236  and  _237
REMARK   84  A    between atoms: _240  and  _242
REMARK   85  A    between atoms: _242  and  _243
REMARK   86  A    between atoms: _242  and  _245
REMARK   87  A    between atoms: _245  and  _246
REMARK   88  A    between atoms: _248  and  _250
REMARK   89  A    between atoms: _250  and  _251
REMARK   90  A    between atoms: _250  and  _253
REMARK   91  A    between atoms: _253  and  _254
REMARK   92  A    between atoms: _257  and  _259
REMARK   93  A    between atoms: _259  and  _260
REMARK   94  A    between atoms: _259  and  _262
REMARK   95  A    between atoms: _264  and  _266
REMARK   96  A    between atoms: _266  and  _267
REMARK   97  A    between atoms: _266  and  _269
REMARK   98  A    between atoms: _269  and  _270
REMARK   99  A    between atoms: _273  and  _275
REMARK  100  A    between atoms: _275  and  _276
REMARK  101  A    between atoms: _275  and  _278
REMARK  102  A    between atoms: _278  and  _279
REMARK  103  A    between atoms: _282  and  _284
REMARK  104  A    between atoms: _284  and  _285
REMARK  105  A    between atoms: _284  and  _287
REMARK  106  A    between atoms: _287  and  _288
REMARK                            x       y       z     vdW  Elec       q    Type
REMARK                         _______ _______ _______ _____ _____    ______ ____
ROOT
ATOM      1  O   HOH     1      97.107 103.314 -47.488  0.00  0.00    +0.000 OA
ENDROOT
TORSDOF 0
REMARK  Name = ../refined-set-2016/4agq/4agq_pocket.pdb
REMARK  106 active torsions:
REMARK  status: ('A' for Active; 'I' for Inactive)
REMARK    1  A    between atoms: _1  and  _3
REMARK    2  A    between atoms: _3  and  _4
REMARK    3  A    between atoms: _3  and  _6
REMARK    4  A    between atoms: _6  and  _7
REMARK    5  A    between atoms: _12  and  _13
REMARK    6  A    between atoms: _15  and  _17
REMARK    7  A    between atoms: _17  and  _18
REMARK    8  A    between atoms: _17  and  _20
REMARK    9  A    between atoms: _20  and  _21
REMARK   10  A    between atoms: _27  and  _29
REMARK   11  A    between atoms: _29  and  _30
REMARK   12  A    between atoms: _29  and  _32
REMARK   13  A    between atoms: _32  and  _33
REMARK   14  A    between atoms: _33  and  _34
REMARK   15  A    between atoms: _34  and  _35
REMARK   16  A    between atoms: _44  and  _46
REMARK   17  A    between atoms: _46  and  _47
REMARK   18  A    between atoms: _46  and  _49
REMARK   19  A    between atoms: _49  and  _50
REMARK   20  A    between atoms: _50  and  _51
REMARK   21  A    between atoms: _56  and  _58
REMARK   22  A    between atoms: _58  and  _59
REMARK   23  A    between atoms: _58  and  _61
REMARK   24  A    between atoms: _61  and  _62
REMARK   25  A    between atoms: _65  and  _67
REMARK   26  A    between atoms: _67  and  _68
REMARK   27  A    between atoms: _67  and  _70
REMARK   28  A    between atoms: _70  and  _71
REMARK   29  A    between atoms: _81  and  _83
REMARK   30  A    between atoms: _83  and  _84
REMARK   31  A    between atoms: _83  and  _86
REMARK   32  A    between atoms: _89  and  _91
REMARK   33  A    between atoms: _91  and  _92
REMARK   34  A    between atoms: _91  and  _94
REMARK   35  A    between atoms: _94  and  _95
REMARK   36  A    between atoms: _98  and  _100
REMARK   37  A    between atoms: _100  and  _101
REMARK   38  A    between atoms: _100  and  _103
REMARK   39  A    between atoms: _103  and  _104
REMARK   40  A    between atoms: _106  and  _108
REMARK   41  A    between atoms: _108  and  _109
REMARK   42  A    between atoms: _108  and  _111
REMARK   43  A    between atoms: _111  and  _112
REMARK   44  A    between atoms: _116  and  _117
REMARK   45  A    between atoms: _123  and  _124
REMARK   46  A    between atoms: _130  and  _131
REMARK   47  A    between atoms: _136  and  _138
REMARK   48  A    between atoms: _138  and  _139
REMARK   49  A    between atoms: _141  and  _143
REMARK   50  A    between atoms: _143  and  _144
REMARK   51  A    between atoms: _143  and  _146
REMARK   52  A    between atoms: _146  and  _147
REMARK   53  A    between atoms: _150  and  _152
REMARK   54  A    between atoms: _152  and  _153
REMARK   55  A    between atoms: _152  and  _155
REMARK   56  A    between atoms: _155  and  _156
REMARK   57  A    between atoms: _156  and  _157
REMARK   58  A    between atoms: _157  and  _158
REMARK   59  A    between atoms: _167  and  _169
REMARK   60  A    between atoms: _169  and  _170
REMARK   61  A    between atoms: _169  and  _172
REMARK   62  A    between atoms: _175  and  _177
REMARK   63  A    between atoms: _177  and  _178
REMARK   64  A    between atoms: _177  and  _180
REMARK   65  A    between atoms: _180  and  _181
REMARK   66  A    between atoms: _181  and  _182
REMARK   67  A    between atoms: _182  and  _183
REMARK   68  A    between atoms: _193  and  _194
REMARK   69  A    between atoms: _199  and  _201
REMARK   70  A    between atoms: _201  and  _202
REMARK   71  A    between atoms: _201  and  _204
REMARK   72  A    between atoms: _206  and  _208
REMARK   73  A    between atoms: _208  and  _209
REMARK   74  A    between atoms: _208  and  _211
REMARK   75  A    between atoms: _211  and  _212
REMARK   76  A    between atoms: _212  and  _213
REMARK   77  A    between atoms: _217  and  _218
REMARK   78  A    between atoms: _224  and  _225
REMARK   79  A    between atoms: _230  and  _232
REMARK   80  A    between atoms: _232  and  _233
REMARK   81  A    between atoms: _232  and  _235
REMARK   82  A    between atoms: _235  and  _236
REMARK   83  A    between atoms: _236  and  _237
REMARK   84  A    between atoms: _240  and  _242
REMARK   85  A    between atoms: _242  and  _243
REMARK   86  A    between atoms: _242  and  _245
REMARK   87  A    between atoms: _245  and  _246
REMARK   88  A    between atoms: _248  and  _250
REMARK   89  A    between atoms: _250  and  _251
REMARK   90  A    between atoms: _250  and  _253
REMARK   91  A    between atoms: _253  and  _254
REMARK   92  A    between atoms: _257  and  _259
REMARK   93  A    between atoms: _259  and  _260
REMARK   94  A    between atoms: _259  and  _262
REMARK   95  A    between atoms: _264  and  _266
REMARK   96  A    between atoms: _266  and  _267
REMARK   97  A    between atoms: _266  and  _269
REMARK   98  A    between atoms: _269  and  _270
REMARK   99  A    between atoms: _273  and  _275
REMARK  100  A    between atoms: _275  and  _276
REMARK  101  A    between atoms: _275  and  _278
REMARK  102  A    between atoms: _278  and  _279
REMARK  103  A    between atoms: _282  and  _284
REMARK  104  A    between atoms: _284  and  _285
REMARK  105  A    between atoms: _284  and  _287
REMARK  106  A    between atoms: _287  and  _288
REMARK                            x       y       z     vdW  Elec       q    Type
REMARK                         _______ _______ _______ _____ _____    ______ ____
ROOT
ATOM      1  O   HOH     1      96.397 104.301 -44.129  0.00  0.00    +0.000 OA
ENDROOT
TORSDOF 0
REMARK  Name = ../refined-set-2016/4agq/4agq_pocket.pdb
REMARK  106 active torsions:
REMARK  status: ('A' for Active; 'I' for Inactive)
REMARK    1  A    between atoms: _1  and  _3
REMARK    2  A    between atoms: _3  and  _4
REMARK    3  A    between atoms: _3  and  _6
REMARK    4  A    between atoms: _6  and  _7
REMARK    5  A    between atoms: _12  and  _13
REMARK    6  A    between atoms: _15  and  _17
REMARK    7  A    between atoms: _17  and  _18
REMARK    8  A    between atoms: _17  and  _20
REMARK    9  A    between atoms: _20  and  _21
REMARK   10  A    between atoms: _27  and  _29
REMARK   11  A    between atoms: _29  and  _30
REMARK   12  A    between atoms: _29  and  _32
REMARK   13  A    between atoms: _32  and  _33
REMARK   14  A    between atoms: _33  and  _34
REMARK   15  A    between atoms: _34  and  _35
REMARK   16  A    between atoms: _44  and  _46
REMARK   17  A    between atoms: _46  and  _47
REMARK   18  A    between atoms: _46  and  _49
REMARK   19  A    between atoms: _49  and  _50
REMARK   20  A    between atoms: _50  and  _51
REMARK   21  A    between atoms: _56  and  _58
REMARK   22  A    between atoms: _58  and  _59
REMARK   23  A    between atoms: _58  and  _61
REMARK   24  A    between atoms: _61  and  _62
REMARK   25  A    between atoms: _65  and  _67
REMARK   26  A    between atoms: _67  and  _68
REMARK   27  A    between atoms: _67  and  _70
REMARK   28  A    between atoms: _70  and  _71
REMARK   29  A    between atoms: _81  and  _83
REMARK   30  A    between atoms: _83  and  _84
REMARK   31  A    between atoms: _83  and  _86
REMARK   32  A    between atoms: _89  and  _91
REMARK   33  A    between atoms: _91  and  _92
REMARK   34  A    between atoms: _91  and  _94
REMARK   35  A    between atoms: _94  and  _95
REMARK   36  A    between atoms: _98  and  _100
REMARK   37  A    between atoms: _100  and  _101
REMARK   38  A    between atoms: _100  and  _103
REMARK   39  A    between atoms: _103  and  _104
REMARK   40  A    between atoms: _106  and  _108
REMARK   41  A    between atoms: _108  and  _109
REMARK   42  A    between atoms: _108  and  _111
REMARK   43  A    between atoms: _111  and  _112
REMARK   44  A    between atoms: _116  and  _117
REMARK   45  A    between atoms: _123  and  _124
REMARK   46  A    between atoms: _130  and  _131
REMARK   47  A    between atoms: _136  and  _138
REMARK   48  A    between atoms: _138  and  _139
REMARK   49  A    between atoms: _141  and  _143
REMARK   50  A    between atoms: _143  and  _144
REMARK   51  A    between atoms: _143  and  _146
REMARK   52  A    between atoms: _146  and  _147
REMARK   53  A    between atoms: _150  and  _152
REMARK   54  A    between atoms: _152  and  _153
REMARK   55  A    between atoms: _152  and  _155
REMARK   56  A    between atoms: _155  and  _156
REMARK   57  A    between atoms: _156  and  _157
REMARK   58  A    between atoms: _157  and  _158
REMARK   59  A    between atoms: _167  and  _169
REMARK   60  A    between atoms: _169  and  _170
REMARK   61  A    between atoms: _169  and  _172
REMARK   62  A    between atoms: _175  and  _177
REMARK   63  A    between atoms: _177  and  _178
REMARK   64  A    between atoms: _177  and  _180
REMARK   65  A    between atoms: _180  and  _181
REMARK   66  A    between atoms: _181  and  _182
REMARK   67  A    between atoms: _182  and  _183
REMARK   68  A    between atoms: _193  and  _194
REMARK   69  A    between atoms: _199  and  _201
REMARK   70  A    between atoms: _201  and  _202
REMARK   71  A    between atoms: _201  and  _204
REMARK   72  A    between atoms: _206  and  _208
REMARK   73  A    between atoms: _208  and  _209
REMARK   74  A    between atoms: _208  and  _211
REMARK   75  A    between atoms: _211  and  _212
REMARK   76  A    between atoms: _212  and  _213
REMARK   77  A    between atoms: _217  and  _218
REMARK   78  A    between atoms: _224  and  _225
REMARK   79  A    between atoms: _230  and  _232
REMARK   80  A    between atoms: _232  and  _233
REMARK   81  A    between atoms: _232  and  _235
REMARK   82  A    between atoms: _235  and  _236
REMARK   83  A    between atoms: _236  and  _237
REMARK   84  A    between atoms: _240  and  _242
REMARK   85  A    between atoms: _242  and  _243
REMARK   86  A    between atoms: _242  and  _245
REMARK   87  A    between atoms: _245  and  _246
REMARK   88  A    between atoms: _248  and  _250
REMARK   89  A    between atoms: _250  and  _251
REMARK   90  A    between atoms: _250  and  _253
REMARK   91  A    between atoms: _253  and  _254
REMARK   92  A    between atoms: _257  and  _259
REMARK   93  A    between atoms: _259  and  _260
REMARK   94  A    between atoms: _259  and  _262
REMARK   95  A    between atoms: _264  and  _266
REMARK   96  A    between atoms: _266  and  _267
REMARK   97  A    between atoms: _266  and  _269
REMARK   98  A    between atoms: _269  and  _270
REMARK   99  A    between atoms: _273  and  _275
REMARK  100  A    between atoms: _275  and  _276
REMARK  101  A    between atoms: _275  and  _278
REMARK  102  A    between atoms: _278  and  _279
REMARK  103  A    between atoms: _282  and  _284
REMARK  104  A    between atoms: _284  and  _285
REMARK  105  A    between atoms: _284  and  _287
REMARK  106  A    between atoms: _287  and  _288
REMARK                            x       y       z     vdW  Elec       q    Type
REMARK                         _______ _______ _______ _____ _____    ______ ____
ROOT
ATOM      1  O   HOH     1      98.915 103.962 -39.263  0.00  0.00    +0.000 OA
ENDROOT
TORSDOF 0
REMARK  Name = ../refined-set-2016/4agq/4agq_pocket.pdb
REMARK  106 active torsions:
REMARK  status: ('A' for Active; 'I' for Inactive)
REMARK    1  A    between atoms: _1  and  _3
REMARK    2  A    between atoms: _3  and  _4
REMARK    3  A    between atoms: _3  and  _6
REMARK    4  A    between atoms: _6  and  _7
REMARK    5  A    between atoms: _12  and  _13
REMARK    6  A    between atoms: _15  and  _17
REMARK    7  A    between atoms: _17  and  _18
REMARK    8  A    between atoms: _17  and  _20
REMARK    9  A    between atoms: _20  and  _21
REMARK   10  A    between atoms: _27  and  _29
REMARK   11  A    between atoms: _29  and  _30
REMARK   12  A    between atoms: _29  and  _32
REMARK   13  A    between atoms: _32  and  _33
REMARK   14  A    between atoms: _33  and  _34
REMARK   15  A    between atoms: _34  and  _35
REMARK   16  A    between atoms: _44  and  _46
REMARK   17  A    between atoms: _46  and  _47
REMARK   18  A    between atoms: _46  and  _49
REMARK   19  A    between atoms: _49  and  _50
REMARK   20  A    between atoms: _50  and  _51
REMARK   21  A    between atoms: _56  and  _58
REMARK   22  A    between atoms: _58  and  _59
REMARK   23  A    between atoms: _58  and  _61
REMARK   24  A    between atoms: _61  and  _62
REMARK   25  A    between atoms: _65  and  _67
REMARK   26  A    between atoms: _67  and  _68
REMARK   27  A    between atoms: _67  and  _70
REMARK   28  A    between atoms: _70  and  _71
REMARK   29  A    between atoms: _81  and  _83
REMARK   30  A    between atoms: _83  and  _84
REMARK   31  A    between atoms: _83  and  _86
REMARK   32  A    between atoms: _89  and  _91
REMARK   33  A    between atoms: _91  and  _92
REMARK   34  A    between atoms: _91  and  _94
REMARK   35  A    between atoms: _94  and  _95
REMARK   36  A    between atoms: _98  and  _100
REMARK   37  A    between atoms: _100  and  _101
REMARK   38  A    between atoms: _100  and  _103
REMARK   39  A    between atoms: _103  and  _104
REMARK   40  A    between atoms: _106  and  _108
REMARK   41  A    between atoms: _108  and  _109
REMARK   42  A    between atoms: _108  and  _111
REMARK   43  A    between atoms: _111  and  _112
REMARK   44  A    between atoms: _116  and  _117
REMARK   45  A    between atoms: _123  and  _124
REMARK   46  A    between atoms: _130  and  _131
REMARK   47  A    between atoms: _136  and  _138
REMARK   48  A    between atoms: _138  and  _139
REMARK   49  A    between atoms: _141  and  _143
REMARK   50  A    between atoms: _143  and  _144
REMARK   51  A    between atoms: _143  and  _146
REMARK   52  A    between atoms: _146  and  _147
REMARK   53  A    between atoms: _150  and  _152
REMARK   54  A    between atoms: _152  and  _153
REMARK   55  A    between atoms: _152  and  _155
REMARK   56  A    between atoms: _155  and  _156
REMARK   57  A    between atoms: _156  and  _157
REMARK   58  A    between atoms: _157  and  _158
REMARK   59  A    between atoms: _167  and  _169
REMARK   60  A    between atoms: _169  and  _170
REMARK   61  A    between atoms: _169  and  _172
REMARK   62  A    between atoms: _175  and  _177
REMARK   63  A    between atoms: _177  and  _178
REMARK   64  A    between atoms: _177  and  _180
REMARK   65  A    between atoms: _180  and  _181
REMARK   66  A    between atoms: _181  and  _182
REMARK   67  A    between atoms: _182  and  _183
REMARK   68  A    between atoms: _193  and  _194
REMARK   69  A    between atoms: _199  and  _201
REMARK   70  A    between atoms: _201  and  _202
REMARK   71  A    between atoms: _201  and  _204
REMARK   72  A    between atoms: _206  and  _208
REMARK   73  A    between atoms: _208  and  _209
REMARK   74  A    between atoms: _208  and  _211
REMARK   75  A    between atoms: _211  and  _212
REMARK   76  A    between atoms: _212  and  _213
REMARK   77  A    between atoms: _217  and  _218
REMARK   78  A    between atoms: _224  and  _225
REMARK   79  A    between atoms: _230  and  _232
REMARK   80  A    between atoms: _232  and  _233
REMARK   81  A    between atoms: _232  and  _235
REMARK   82  A    between atoms: _235  and  _236
REMARK   83  A    between atoms: _236  and  _237
REMARK   84  A    between atoms: _240  and  _242
REMARK   85  A    between atoms: _242  and  _243
REMARK   86  A    between atoms: _242  and  _245
REMARK   87  A    between atoms: _245  and  _246
REMARK   88  A    between atoms: _248  and  _250
REMARK   89  A    between atoms: _250  and  _251
REMARK   90  A    between atoms: _250  and  _253
REMARK   91  A    between atoms: _253  and  _254
REMARK   92  A    between atoms: _257  and  _259
REMARK   93  A    between atoms: _259  and  _260
REMARK   94  A    between atoms: _259  and  _262
REMARK   95  A    between atoms: _264  and  _266
REMARK   96  A    between atoms: _266  and  _267
REMARK   97  A    between atoms: _266  and  _269
REMARK   98  A    between atoms: _269  and  _270
REMARK   99  A    between atoms: _273  and  _275
REMARK  100  A    between atoms: _275  and  _276
REMARK  101  A    between atoms: _275  and  _278
REMARK  102  A    between atoms: _278  and  _279
REMARK  103  A    between atoms: _282  and  _284
REMARK  104  A    between atoms: _284  and  _285
REMARK  105  A    between atoms: _284  and  _287
REMARK  106  A    between atoms: _287  and  _288
REMARK                            x       y       z     vdW  Elec       q    Type
REMARK                         _______ _______ _______ _____ _____    ______ ____
ROOT
ATOM      1  O   HOH     1      96.363  97.998 -50.953  0.00  0.00    +0.000 OA
ENDROOT
TORSDOF 0
REMARK  Name = ../refined-set-2016/4agq/4agq_pocket.pdb
REMARK  106 active torsions:
REMARK  status: ('A' for Active; 'I' for Inactive)
REMARK    1  A    between atoms: _1  and  _3
REMARK    2  A    between atoms: _3  and  _4
REMARK    3  A    between atoms: _3  and  _6
REMARK    4  A    between atoms: _6  and  _7
REMARK    5  A    between atoms: _12  and  _13
REMARK    6  A    between atoms: _15  and  _17
REMARK    7  A    between atoms: _17  and  _18
REMARK    8  A    between atoms: _17  and  _20
REMARK    9  A    between atoms: _20  and  _21
REMARK   10  A    between atoms: _27  and  _29
REMARK   11  A    between atoms: _29  and  _30
REMARK   12  A    between atoms: _29  and  _32
REMARK   13  A    between atoms: _32  and  _33
REMARK   14  A    between atoms: _33  and  _34
REMARK   15  A    between atoms: _34  and  _35
REMARK   16  A    between atoms: _44  and  _46
REMARK   17  A    between atoms: _46  and  _47
REMARK   18  A    between atoms: _46  and  _49
REMARK   19  A    between atoms: _49  and  _50
REMARK   20  A    between atoms: _50  and  _51
REMARK   21  A    between atoms: _56  and  _58
REMARK   22  A    between atoms: _58  and  _59
REMARK   23  A    between atoms: _58  and  _61
REMARK   24  A    between atoms: _61  and  _62
REMARK   25  A    between atoms: _65  and  _67
REMARK   26  A    between atoms: _67  and  _68
REMARK   27  A    between atoms: _67  and  _70
REMARK   28  A    between atoms: _70  and  _71
REMARK   29  A    between atoms: _81  and  _83
REMARK   30  A    between atoms: _83  and  _84
REMARK   31  A    between atoms: _83  and  _86
REMARK   32  A    between atoms: _89  and  _91
REMARK   33  A    between atoms: _91  and  _92
REMARK   34  A    between atoms: _91  and  _94
REMARK   35  A    between atoms: _94  and  _95
REMARK   36  A    between atoms: _98  and  _100
REMARK   37  A    between atoms: _100  and  _101
REMARK   38  A    between atoms: _100  and  _103
REMARK   39  A    between atoms: _103  and  _104
REMARK   40  A    between atoms: _106  and  _108
REMARK   41  A    between atoms: _108  and  _109
REMARK   42  A    between atoms: _108  and  _111
REMARK   43  A    between atoms: _111  and  _112
REMARK   44  A    between atoms: _116  and  _117
REMARK   45  A    between atoms: _123  and  _124
REMARK   46  A    between atoms: _130  and  _131
REMARK   47  A    between atoms: _136  and  _138
REMARK   48  A    between atoms: _138  and  _139
REMARK   49  A    between atoms: _141  and  _143
REMARK   50  A    between atoms: _143  and  _144
REMARK   51  A    between atoms: _143  and  _146
REMARK   52  A    between atoms: _146  and  _147
REMARK   53  A    between atoms: _150  and  _152
REMARK   54  A    between atoms: _152  and  _153
REMARK   55  A    between atoms: _152  and  _155
REMARK   56  A    between atoms: _155  and  _156
REMARK   57  A    between atoms: _156  and  _157
REMARK   58  A    between atoms: _157  and  _158
REMARK   59  A    between atoms: _167  and  _169
REMARK   60  A    between atoms: _169  and  _170
REMARK   61  A    between atoms: _169  and  _172
REMARK   62  A    between atoms: _175  and  _177
REMARK   63  A    between atoms: _177  and  _178
REMARK   64  A    between atoms: _177  and  _180
REMARK   65  A    between atoms: _180  and  _181
REMARK   66  A    between atoms: _181  and  _182
REMARK   67  A    between atoms: _182  and  _183
REMARK   68  A    between atoms: _193  and  _194
REMARK   69  A    between atoms: _199  and  _201
REMARK   70  A    between atoms: _201  and  _202
REMARK   71  A    between atoms: _201  and  _204
REMARK   72  A    between atoms: _206  and  _208
REMARK   73  A    between atoms: _208  and  _209
REMARK   74  A    between atoms: _208  and  _211
REMARK   75  A    between atoms: _211  and  _212
REMARK   76  A    between atoms: _212  and  _213
REMARK   77  A    between atoms: _217  and  _218
REMARK   78  A    between atoms: _224  and  _225
REMARK   79  A    between atoms: _230  and  _232
REMARK   80  A    between atoms: _232  and  _233
REMARK   81  A    between atoms: _232  and  _235
REMARK   82  A    between atoms: _235  and  _236
REMARK   83  A    between atoms: _236  and  _237
REMARK   84  A    between atoms: _240  and  _242
REMARK   85  A    between atoms: _242  and  _243
REMARK   86  A    between atoms: _242  and  _245
REMARK   87  A    between atoms: _245  and  _246
REMARK   88  A    between atoms: _248  and  _250
REMARK   89  A    between atoms: _250  and  _251
REMARK   90  A    between atoms: _250  and  _253
REMARK   91  A    between atoms: _253  and  _254
REMARK   92  A    between atoms: _257  and  _259
REMARK   93  A    between atoms: _259  and  _260
REMARK   94  A    between atoms: _259  and  _262
REMARK   95  A    between atoms: _264  and  _266
REMARK   96  A    between atoms: _266  and  _267
REMARK   97  A    between atoms: _266  and  _269
REMARK   98  A    between atoms: _269  and  _270
REMARK   99  A    between atoms: _273  and  _275
REMARK  100  A    between atoms: _275  and  _276
REMARK  101  A    between atoms: _275  and  _278
REMARK  102  A    between atoms: _278  and  _279
REMARK  103  A    between atoms: _282  and  _284
REMARK  104  A    between atoms: _284  and  _285
REMARK  105  A    between atoms: _284  and  _287
REMARK  106  A    between atoms: _287  and  _288
REMARK                            x       y       z     vdW  Elec       q    Type
REMARK                         _______ _______ _______ _____ _____    ______ ____
ROOT
ATOM      1  O   HOH     1      93.247 100.289 -48.716  0.00  0.00    +0.000 OA
ENDROOT
TORSDOF 0
REMARK  Name = ../refined-set-2016/4agq/4agq_pocket.pdb
REMARK  106 active torsions:
REMARK  status: ('A' for Active; 'I' for Inactive)
REMARK    1  A    between atoms: _1  and  _3
REMARK    2  A    between atoms: _3  and  _4
REMARK    3  A    between atoms: _3  and  _6
REMARK    4  A    between atoms: _6  and  _7
REMARK    5  A    between atoms: _12  and  _13
REMARK    6  A    between atoms: _15  and  _17
REMARK    7  A    between atoms: _17  and  _18
REMARK    8  A    between atoms: _17  and  _20
REMARK    9  A    between atoms: _20  and  _21
REMARK   10  A    between atoms: _27  and  _29
REMARK   11  A    between atoms: _29  and  _30
REMARK   12  A    between atoms: _29  and  _32
REMARK   13  A    between atoms: _32  and  _33
REMARK   14  A    between atoms: _33  and  _34
REMARK   15  A    between atoms: _34  and  _35
REMARK   16  A    between atoms: _44  and  _46
REMARK   17  A    between atoms: _46  and  _47
REMARK   18  A    between atoms: _46  and  _49
REMARK   19  A    between atoms: _49  and  _50
REMARK   20  A    between atoms: _50  and  _51
REMARK   21  A    between atoms: _56  and  _58
REMARK   22  A    between atoms: _58  and  _59
REMARK   23  A    between atoms: _58  and  _61
REMARK   24  A    between atoms: _61  and  _62
REMARK   25  A    between atoms: _65  and  _67
REMARK   26  A    between atoms: _67  and  _68
REMARK   27  A    between atoms: _67  and  _70
REMARK   28  A    between atoms: _70  and  _71
REMARK   29  A    between atoms: _81  and  _83
REMARK   30  A    between atoms: _83  and  _84
REMARK   31  A    between atoms: _83  and  _86
REMARK   32  A    between atoms: _89  and  _91
REMARK   33  A    between atoms: _91  and  _92
REMARK   34  A    between atoms: _91  and  _94
REMARK   35  A    between atoms: _94  and  _95
REMARK   36  A    between atoms: _98  and  _100
REMARK   37  A    between atoms: _100  and  _101
REMARK   38  A    between atoms: _100  and  _103
REMARK   39  A    between atoms: _103  and  _104
REMARK   40  A    between atoms: _106  and  _108
REMARK   41  A    between atoms: _108  and  _109
REMARK   42  A    between atoms: _108  and  _111
REMARK   43  A    between atoms: _111  and  _112
REMARK   44  A    between atoms: _116  and  _117
REMARK   45  A    between atoms: _123  and  _124
REMARK   46  A    between atoms: _130  and  _131
REMARK   47  A    between atoms: _136  and  _138
REMARK   48  A    between atoms: _138  and  _139
REMARK   49  A    between atoms: _141  and  _143
REMARK   50  A    between atoms: _143  and  _144
REMARK   51  A    between atoms: _143  and  _146
REMARK   52  A    between atoms: _146  and  _147
REMARK   53  A    between atoms: _150  and  _152
REMARK   54  A    between atoms: _152  and  _153
REMARK   55  A    between atoms: _152  and  _155
REMARK   56  A    between atoms: _155  and  _156
REMARK   57  A    between atoms: _156  and  _157
REMARK   58  A    between atoms: _157  and  _158
REMARK   59  A    between atoms: _167  and  _169
REMARK   60  A    between atoms: _169  and  _170
REMARK   61  A    between atoms: _169  and  _172
REMARK   62  A    between atoms: _175  and  _177
REMARK   63  A    between atoms: _177  and  _178
REMARK   64  A    between atoms: _177  and  _180
REMARK   65  A    between atoms: _180  and  _181
REMARK   66  A    between atoms: _181  and  _182
REMARK   67  A    between atoms: _182  and  _183
REMARK   68  A    between atoms: _193  and  _194
REMARK   69  A    between atoms: _199  and  _201
REMARK   70  A    between atoms: _201  and  _202
REMARK   71  A    between atoms: _201  and  _204
REMARK   72  A    between atoms: _206  and  _208
REMARK   73  A    between atoms: _208  and  _209
REMARK   74  A    between atoms: _208  and  _211
REMARK   75  A    between atoms: _211  and  _212
REMARK   76  A    between atoms: _212  and  _213
REMARK   77  A    between atoms: _217  and  _218
REMARK   78  A    between atoms: _224  and  _225
REMARK   79  A    between atoms: _230  and  _232
REMARK   80  A    between atoms: _232  and  _233
REMARK   81  A    between atoms: _232  and  _235
REMARK   82  A    between atoms: _235  and  _236
REMARK   83  A    between atoms: _236  and  _237
REMARK   84  A    between atoms: _240  and  _242
REMARK   85  A    between atoms: _242  and  _243
REMARK   86  A    between atoms: _242  and  _245
REMARK   87  A    between atoms: _245  and  _246
REMARK   88  A    between atoms: _248  and  _250
REMARK   89  A    between atoms: _250  and  _251
REMARK   90  A    between atoms: _250  and  _253
REMARK   91  A    between atoms: _253  and  _254
REMARK   92  A    between atoms: _257  and  _259
REMARK   93  A    between atoms: _259  and  _260
REMARK   94  A    between atoms: _259  and  _262
REMARK   95  A    between atoms: _264  and  _266
REMARK   96  A    between atoms: _266  and  _267
REMARK   97  A    between atoms: _266  and  _269
REMARK   98  A    between atoms: _269  and  _270
REMARK   99  A    between atoms: _273  and  _275
REMARK  100  A    between atoms: _275  and  _276
REMARK  101  A    between atoms: _275  and  _278
REMARK  102  A    between atoms: _278  and  _279
REMARK  103  A    between atoms: _282  and  _284
REMARK  104  A    between atoms: _284  and  _285
REMARK  105  A    between atoms: _284  and  _287
REMARK  106  A    between atoms: _287  and  _288
REMARK                            x       y       z     vdW  Elec       q    Type
REMARK                         _______ _______ _______ _____ _____    ______ ____
ROOT
ATOM      1  O   HOH     1      96.567  94.691 -52.109  0.00  0.00    +0.000 OA
ENDROOT
TORSDOF 0
REMARK  Name = ../refined-set-2016/4agq/4agq_pocket.pdb
REMARK  106 active torsions:
REMARK  status: ('A' for Active; 'I' for Inactive)
REMARK    1  A    between atoms: _1  and  _3
REMARK    2  A    between atoms: _3  and  _4
REMARK    3  A    between atoms: _3  and  _6
REMARK    4  A    between atoms: _6  and  _7
REMARK    5  A    between atoms: _12  and  _13
REMARK    6  A    between atoms: _15  and  _17
REMARK    7  A    between atoms: _17  and  _18
REMARK    8  A    between atoms: _17  and  _20
REMARK    9  A    between atoms: _20  and  _21
REMARK   10  A    between atoms: _27  and  _29
REMARK   11  A    between atoms: _29  and  _30
REMARK   12  A    between atoms: _29  and  _32
REMARK   13  A    between atoms: _32  and  _33
REMARK   14  A    between atoms: _33  and  _34
REMARK   15  A    between atoms: _34  and  _35
REMARK   16  A    between atoms: _44  and  _46
REMARK   17  A    between atoms: _46  and  _47
REMARK   18  A    between atoms: _46  and  _49
REMARK   19  A    between atoms: _49  and  _50
REMARK   20  A    between atoms: _50  and  _51
REMARK   21  A    between atoms: _56  and  _58
REMARK   22  A    between atoms: _58  and  _59
REMARK   23  A    between atoms: _58  and  _61
REMARK   24  A    between atoms: _61  and  _62
REMARK   25  A    between atoms: _65  and  _67
REMARK   26  A    between atoms: _67  and  _68
REMARK   27  A    between atoms: _67  and  _70
REMARK   28  A    between atoms: _70  and  _71
REMARK   29  A    between atoms: _81  and  _83
REMARK   30  A    between atoms: _83  and  _84
REMARK   31  A    between atoms: _83  and  _86
REMARK   32  A    between atoms: _89  and  _91
REMARK   33  A    between atoms: _91  and  _92
REMARK   34  A    between atoms: _91  and  _94
REMARK   35  A    between atoms: _94  and  _95
REMARK   36  A    between atoms: _98  and  _100
REMARK   37  A    between atoms: _100  and  _101
REMARK   38  A    between atoms: _100  and  _103
REMARK   39  A    between atoms: _103  and  _104
REMARK   40  A    between atoms: _106  and  _108
REMARK   41  A    between atoms: _108  and  _109
REMARK   42  A    between atoms: _108  and  _111
REMARK   43  A    between atoms: _111  and  _112
REMARK   44  A    between atoms: _116  and  _117
REMARK   45  A    between atoms: _123  and  _124
REMARK   46  A    between atoms: _130  and  _131
REMARK   47  A    between atoms: _136  and  _138
REMARK   48  A    between atoms: _138  and  _139
REMARK   49  A    between atoms: _141  and  _143
REMARK   50  A    between atoms: _143  and  _144
REMARK   51  A    between atoms: _143  and  _146
REMARK   52  A    between atoms: _146  and  _147
REMARK   53  A    between atoms: _150  and  _152
REMARK   54  A    between atoms: _152  and  _153
REMARK   55  A    between atoms: _152  and  _155
REMARK   56  A    between atoms: _155  and  _156
REMARK   57  A    between atoms: _156  and  _157
REMARK   58  A    between atoms: _157  and  _158
REMARK   59  A    between atoms: _167  and  _169
REMARK   60  A    between atoms: _169  and  _170
REMARK   61  A    between atoms: _169  and  _172
REMARK   62  A    between atoms: _175  and  _177
REMARK   63  A    between atoms: _177  and  _178
REMARK   64  A    between atoms: _177  and  _180
REMARK   65  A    between atoms: _180  and  _181
REMARK   66  A    between atoms: _181  and  _182
REMARK   67  A    between atoms: _182  and  _183
REMARK   68  A    between atoms: _193  and  _194
REMARK   69  A    between atoms: _199  and  _201
REMARK   70  A    between atoms: _201  and  _202
REMARK   71  A    between atoms: _201  and  _204
REMARK   72  A    between atoms: _206  and  _208
REMARK   73  A    between atoms: _208  and  _209
REMARK   74  A    between atoms: _208  and  _211
REMARK   75  A    between atoms: _211  and  _212
REMARK   76  A    between atoms: _212  and  _213
REMARK   77  A    between atoms: _217  and  _218
REMARK   78  A    between atoms: _224  and  _225
REMARK   79  A    between atoms: _230  and  _232
REMARK   80  A    between atoms: _232  and  _233
REMARK   81  A    between atoms: _232  and  _235
REMARK   82  A    between atoms: _235  and  _236
REMARK   83  A    between atoms: _236  and  _237
REMARK   84  A    between atoms: _240  and  _242
REMARK   85  A    between atoms: _242  and  _243
REMARK   86  A    between atoms: _242  and  _245
REMARK   87  A    between atoms: _245  and  _246
REMARK   88  A    between atoms: _248  and  _250
REMARK   89  A    between atoms: _250  and  _251
REMARK   90  A    between atoms: _250  and  _253
REMARK   91  A    between atoms: _253  and  _254
REMARK   92  A    between atoms: _257  and  _259
REMARK   93  A    between atoms: _259  and  _260
REMARK   94  A    between atoms: _259  and  _262
REMARK   95  A    between atoms: _264  and  _266
REMARK   96  A    between atoms: _266  and  _267
REMARK   97  A    between atoms: _266  and  _269
REMARK   98  A    between atoms: _269  and  _270
REMARK   99  A    between atoms: _273  and  _275
REMARK  100  A    between atoms: _275  and  _276
REMARK  101  A    between atoms: _275  and  _278
REMARK  102  A    between atoms: _278  and  _279
REMARK  103  A    between atoms: _282  and  _284
REMARK  104  A    between atoms: _284  and  _285
REMARK  105  A    between atoms: _284  and  _287
REMARK  106  A    between atoms: _287  and  _288
REMARK                            x       y       z     vdW  Elec       q    Type
REMARK                         _______ _______ _______ _____ _____    ______ ____
ROOT
ATOM      1  O   HOH     1      95.665  93.809 -54.068  0.00  0.00    +0.000 OA
ENDROOT
TORSDOF 0
REMARK  Name = ../refined-set-2016/4agq/4agq_pocket.pdb
REMARK  106 active torsions:
REMARK  status: ('A' for Active; 'I' for Inactive)
REMARK    1  A    between atoms: _1  and  _3
REMARK    2  A    between atoms: _3  and  _4
REMARK    3  A    between atoms: _3  and  _6
REMARK    4  A    between atoms: _6  and  _7
REMARK    5  A    between atoms: _12  and  _13
REMARK    6  A    between atoms: _15  and  _17
REMARK    7  A    between atoms: _17  and  _18
REMARK    8  A    between atoms: _17  and  _20
REMARK    9  A    between atoms: _20  and  _21
REMARK   10  A    between atoms: _27  and  _29
REMARK   11  A    between atoms: _29  and  _30
REMARK   12  A    between atoms: _29  and  _32
REMARK   13  A    between atoms: _32  and  _33
REMARK   14  A    between atoms: _33  and  _34
REMARK   15  A    between atoms: _34  and  _35
REMARK   16  A    between atoms: _44  and  _46
REMARK   17  A    between atoms: _46  and  _47
REMARK   18  A    between atoms: _46  and  _49
REMARK   19  A    between atoms: _49  and  _50
REMARK   20  A    between atoms: _50  and  _51
REMARK   21  A    between atoms: _56  and  _58
REMARK   22  A    between atoms: _58  and  _59
REMARK   23  A    between atoms: _58  and  _61
REMARK   24  A    between atoms: _61  and  _62
REMARK   25  A    between atoms: _65  and  _67
REMARK   26  A    between atoms: _67  and  _68
REMARK   27  A    between atoms: _67  and  _70
REMARK   28  A    between atoms: _70  and  _71
REMARK   29  A    between atoms: _81  and  _83
REMARK   30  A    between atoms: _83  and  _84
REMARK   31  A    between atoms: _83  and  _86
REMARK   32  A    between atoms: _89  and  _91
REMARK   33  A    between atoms: _91  and  _92
REMARK   34  A    between atoms: _91  and  _94
REMARK   35  A    between atoms: _94  and  _95
REMARK   36  A    between atoms: _98  and  _100
REMARK   37  A    between atoms: _100  and  _101
REMARK   38  A    between atoms: _100  and  _103
REMARK   39  A    between atoms: _103  and  _104
REMARK   40  A    between atoms: _106  and  _108
REMARK   41  A    between atoms: _108  and  _109
REMARK   42  A    between atoms: _108  and  _111
REMARK   43  A    between atoms: _111  and  _112
REMARK   44  A    between atoms: _116  and  _117
REMARK   45  A    between atoms: _123  and  _124
REMARK   46  A    between atoms: _130  and  _131
REMARK   47  A    between atoms: _136  and  _138
REMARK   48  A    between atoms: _138  and  _139
REMARK   49  A    between atoms: _141  and  _143
REMARK   50  A    between atoms: _143  and  _144
REMARK   51  A    between atoms: _143  and  _146
REMARK   52  A    between atoms: _146  and  _147
REMARK   53  A    between atoms: _150  and  _152
REMARK   54  A    between atoms: _152  and  _153
REMARK   55  A    between atoms: _152  and  _155
REMARK   56  A    between atoms: _155  and  _156
REMARK   57  A    between atoms: _156  and  _157
REMARK   58  A    between atoms: _157  and  _158
REMARK   59  A    between atoms: _167  and  _169
REMARK   60  A    between atoms: _169  and  _170
REMARK   61  A    between atoms: _169  and  _172
REMARK   62  A    between atoms: _175  and  _177
REMARK   63  A    between atoms: _177  and  _178
REMARK   64  A    between atoms: _177  and  _180
REMARK   65  A    between atoms: _180  and  _181
REMARK   66  A    between atoms: _181  and  _182
REMARK   67  A    between atoms: _182  and  _183
REMARK   68  A    between atoms: _193  and  _194
REMARK   69  A    between atoms: _199  and  _201
REMARK   70  A    between atoms: _201  and  _202
REMARK   71  A    between atoms: _201  and  _204
REMARK   72  A    between atoms: _206  and  _208
REMARK   73  A    between atoms: _208  and  _209
REMARK   74  A    between atoms: _208  and  _211
REMARK   75  A    between atoms: _211  and  _212
REMARK   76  A    between atoms: _212  and  _213
REMARK   77  A    between atoms: _217  and  _218
REMARK   78  A    between atoms: _224  and  _225
REMARK   79  A    between atoms: _230  and  _232
REMARK   80  A    between atoms: _232  and  _233
REMARK   81  A    between atoms: _232  and  _235
REMARK   82  A    between atoms: _235  and  _236
REMARK   83  A    between atoms: _236  and  _237
REMARK   84  A    between atoms: _240  and  _242
REMARK   85  A    between atoms: _242  and  _243
REMARK   86  A    between atoms: _242  and  _245
REMARK   87  A    between atoms: _245  and  _246
REMARK   88  A    between atoms: _248  and  _250
REMARK   89  A    between atoms: _250  and  _251
REMARK   90  A    between atoms: _250  and  _253
REMARK   91  A    between atoms: _253  and  _254
REMARK   92  A    between atoms: _257  and  _259
REMARK   93  A    between atoms: _259  and  _260
REMARK   94  A    between atoms: _259  and  _262
REMARK   95  A    between atoms: _264  and  _266
REMARK   96  A    between atoms: _266  and  _267
REMARK   97  A    between atoms: _266  and  _269
REMARK   98  A    between atoms: _269  and  _270
REMARK   99  A    between atoms: _273  and  _275
REMARK  100  A    between atoms: _275  and  _276
REMARK  101  A    between atoms: _275  and  _278
REMARK  102  A    between atoms: _278  and  _279
REMARK  103  A    between atoms: _282  and  _284
REMARK  104  A    between atoms: _284  and  _285
REMARK  105  A    between atoms: _284  and  _287
REMARK  106  A    between atoms: _287  and  _288
REMARK                            x       y       z     vdW  Elec       q    Type
REMARK                         _______ _______ _______ _____ _____    ______ ____
ROOT
ATOM      1  O   HOH     1      91.218  93.137 -54.676  0.00  0.00    +0.000 OA
ENDROOT
TORSDOF 0
REMARK  Name = ../refined-set-2016/4agq/4agq_pocket.pdb
REMARK  106 active torsions:
REMARK  status: ('A' for Active; 'I' for Inactive)
REMARK    1  A    between atoms: _1  and  _3
REMARK    2  A    between atoms: _3  and  _4
REMARK    3  A    between atoms: _3  and  _6
REMARK    4  A    between atoms: _6  and  _7
REMARK    5  A    between atoms: _12  and  _13
REMARK    6  A    between atoms: _15  and  _17
REMARK    7  A    between atoms: _17  and  _18
REMARK    8  A    between atoms: _17  and  _20
REMARK    9  A    between atoms: _20  and  _21
REMARK   10  A    between atoms: _27  and  _29
REMARK   11  A    between atoms: _29  and  _30
REMARK   12  A    between atoms: _29  and  _32
REMARK   13  A    between atoms: _32  and  _33
REMARK   14  A    between atoms: _33  and  _34
REMARK   15  A    between atoms: _34  and  _35
REMARK   16  A    between atoms: _44  and  _46
REMARK   17  A    between atoms: _46  and  _47
REMARK   18  A    between atoms: _46  and  _49
REMARK   19  A    between atoms: _49  and  _50
REMARK   20  A    between atoms: _50  and  _51
REMARK   21  A    between atoms: _56  and  _58
REMARK   22  A    between atoms: _58  and  _59
REMARK   23  A    between atoms: _58  and  _61
REMARK   24  A    between atoms: _61  and  _62
REMARK   25  A    between atoms: _65  and  _67
REMARK   26  A    between atoms: _67  and  _68
REMARK   27  A    between atoms: _67  and  _70
REMARK   28  A    between atoms: _70  and  _71
REMARK   29  A    between atoms: _81  and  _83
REMARK   30  A    between atoms: _83  and  _84
REMARK   31  A    between atoms: _83  and  _86
REMARK   32  A    between atoms: _89  and  _91
REMARK   33  A    between atoms: _91  and  _92
REMARK   34  A    between atoms: _91  and  _94
REMARK   35  A    between atoms: _94  and  _95
REMARK   36  A    between atoms: _98  and  _100
REMARK   37  A    between atoms: _100  and  _101
REMARK   38  A    between atoms: _100  and  _103
REMARK   39  A    between atoms: _103  and  _104
REMARK   40  A    between atoms: _106  and  _108
REMARK   41  A    between atoms: _108  and  _109
REMARK   42  A    between atoms: _108  and  _111
REMARK   43  A    between atoms: _111  and  _112
REMARK   44  A    between atoms: _116  and  _117
REMARK   45  A    between atoms: _123  and  _124
REMARK   46  A    between atoms: _130  and  _131
REMARK   47  A    between atoms: _136  and  _138
REMARK   48  A    between atoms: _138  and  _139
REMARK   49  A    between atoms: _141  and  _143
REMARK   50  A    between atoms: _143  and  _144
REMARK   51  A    between atoms: _143  and  _146
REMARK   52  A    between atoms: _146  and  _147
REMARK   53  A    between atoms: _150  and  _152
REMARK   54  A    between atoms: _152  and  _153
REMARK   55  A    between atoms: _152  and  _155
REMARK   56  A    between atoms: _155  and  _156
REMARK   57  A    between atoms: _156  and  _157
REMARK   58  A    between atoms: _157  and  _158
REMARK   59  A    between atoms: _167  and  _169
REMARK   60  A    between atoms: _169  and  _170
REMARK   61  A    between atoms: _169  and  _172
REMARK   62  A    between atoms: _175  and  _177
REMARK   63  A    between atoms: _177  and  _178
REMARK   64  A    between atoms: _177  and  _180
REMARK   65  A    between atoms: _180  and  _181
REMARK   66  A    between atoms: _181  and  _182
REMARK   67  A    between atoms: _182  and  _183
REMARK   68  A    between atoms: _193  and  _194
REMARK   69  A    between atoms: _199  and  _201
REMARK   70  A    between atoms: _201  and  _202
REMARK   71  A    between atoms: _201  and  _204
REMARK   72  A    between atoms: _206  and  _208
REMARK   73  A    between atoms: _208  and  _209
REMARK   74  A    between atoms: _208  and  _211
REMARK   75  A    between atoms: _211  and  _212
REMARK   76  A    between atoms: _212  and  _213
REMARK   77  A    between atoms: _217  and  _218
REMARK   78  A    between atoms: _224  and  _225
REMARK   79  A    between atoms: _230  and  _232
REMARK   80  A    between atoms: _232  and  _233
REMARK   81  A    between atoms: _232  and  _235
REMARK   82  A    between atoms: _235  and  _236
REMARK   83  A    between atoms: _236  and  _237
REMARK   84  A    between atoms: _240  and  _242
REMARK   85  A    between atoms: _242  and  _243
REMARK   86  A    between atoms: _242  and  _245
REMARK   87  A    between atoms: _245  and  _246
REMARK   88  A    between atoms: _248  and  _250
REMARK   89  A    between atoms: _250  and  _251
REMARK   90  A    between atoms: _250  and  _253
REMARK   91  A    between atoms: _253  and  _254
REMARK   92  A    between atoms: _257  and  _259
REMARK   93  A    between atoms: _259  and  _260
REMARK   94  A    between atoms: _259  and  _262
REMARK   95  A    between atoms: _264  and  _266
REMARK   96  A    between atoms: _266  and  _267
REMARK   97  A    between atoms: _266  and  _269
REMARK   98  A    between atoms: _269  and  _270
REMARK   99  A    between atoms: _273  and  _275
REMARK  100  A    between atoms: _275  and  _276
REMARK  101  A    between atoms: _275  and  _278
REMARK  102  A    between atoms: _278  and  _279
REMARK  103  A    between atoms: _282  and  _284
REMARK  104  A    between atoms: _284  and  _285
REMARK  105  A    between atoms: _284  and  _287
REMARK  106  A    between atoms: _287  and  _288
REMARK                            x       y       z     vdW  Elec       q    Type
REMARK                         _______ _______ _______ _____ _____    ______ ____
ROOT
ATOM      1  O   HOH     1      93.366  94.006 -52.619  0.00  0.00    +0.000 OA
ENDROOT
TORSDOF 0
REMARK  Name = ../refined-set-2016/4agq/4agq_pocket.pdb
REMARK  106 active torsions:
REMARK  status: ('A' for Active; 'I' for Inactive)
REMARK    1  A    between atoms: _1  and  _3
REMARK    2  A    between atoms: _3  and  _4
REMARK    3  A    between atoms: _3  and  _6
REMARK    4  A    between atoms: _6  and  _7
REMARK    5  A    between atoms: _12  and  _13
REMARK    6  A    between atoms: _15  and  _17
REMARK    7  A    between atoms: _17  and  _18
REMARK    8  A    between atoms: _17  and  _20
REMARK    9  A    between atoms: _20  and  _21
REMARK   10  A    between atoms: _27  and  _29
REMARK   11  A    between atoms: _29  and  _30
REMARK   12  A    between atoms: _29  and  _32
REMARK   13  A    between atoms: _32  and  _33
REMARK   14  A    between atoms: _33  and  _34
REMARK   15  A    between atoms: _34  and  _35
REMARK   16  A    between atoms: _44  and  _46
REMARK   17  A    between atoms: _46  and  _47
REMARK   18  A    between atoms: _46  and  _49
REMARK   19  A    between atoms: _49  and  _50
REMARK   20  A    between atoms: _50  and  _51
REMARK   21  A    between atoms: _56  and  _58
REMARK   22  A    between atoms: _58  and  _59
REMARK   23  A    between atoms: _58  and  _61
REMARK   24  A    between atoms: _61  and  _62
REMARK   25  A    between atoms: _65  and  _67
REMARK   26  A    between atoms: _67  and  _68
REMARK   27  A    between atoms: _67  and  _70
REMARK   28  A    between atoms: _70  and  _71
REMARK   29  A    between atoms: _81  and  _83
REMARK   30  A    between atoms: _83  and  _84
REMARK   31  A    between atoms: _83  and  _86
REMARK   32  A    between atoms: _89  and  _91
REMARK   33  A    between atoms: _91  and  _92
REMARK   34  A    between atoms: _91  and  _94
REMARK   35  A    between atoms: _94  and  _95
REMARK   36  A    between atoms: _98  and  _100
REMARK   37  A    between atoms: _100  and  _101
REMARK   38  A    between atoms: _100  and  _103
REMARK   39  A    between atoms: _103  and  _104
REMARK   40  A    between atoms: _106  and  _108
REMARK   41  A    between atoms: _108  and  _109
REMARK   42  A    between atoms: _108  and  _111
REMARK   43  A    between atoms: _111  and  _112
REMARK   44  A    between atoms: _116  and  _117
REMARK   45  A    between atoms: _123  and  _124
REMARK   46  A    between atoms: _130  and  _131
REMARK   47  A    between atoms: _136  and  _138
REMARK   48  A    between atoms: _138  and  _139
REMARK   49  A    between atoms: _141  and  _143
REMARK   50  A    between atoms: _143  and  _144
REMARK   51  A    between atoms: _143  and  _146
REMARK   52  A    between atoms: _146  and  _147
REMARK   53  A    between atoms: _150  and  _152
REMARK   54  A    between atoms: _152  and  _153
REMARK   55  A    between atoms: _152  and  _155
REMARK   56  A    between atoms: _155  and  _156
REMARK   57  A    between atoms: _156  and  _157
REMARK   58  A    between atoms: _157  and  _158
REMARK   59  A    between atoms: _167  and  _169
REMARK   60  A    between atoms: _169  and  _170
REMARK   61  A    between atoms: _169  and  _172
REMARK   62  A    between atoms: _175  and  _177
REMARK   63  A    between atoms: _177  and  _178
REMARK   64  A    between atoms: _177  and  _180
REMARK   65  A    between atoms: _180  and  _181
REMARK   66  A    between atoms: _181  and  _182
REMARK   67  A    between atoms: _182  and  _183
REMARK   68  A    between atoms: _193  and  _194
REMARK   69  A    between atoms: _199  and  _201
REMARK   70  A    between atoms: _201  and  _202
REMARK   71  A    between atoms: _201  and  _204
REMARK   72  A    between atoms: _206  and  _208
REMARK   73  A    between atoms: _208  and  _209
REMARK   74  A    between atoms: _208  and  _211
REMARK   75  A    between atoms: _211  and  _212
REMARK   76  A    between atoms: _212  and  _213
REMARK   77  A    between atoms: _217  and  _218
REMARK   78  A    between atoms: _224  and  _225
REMARK   79  A    between atoms: _230  and  _232
REMARK   80  A    between atoms: _232  and  _233
REMARK   81  A    between atoms: _232  and  _235
REMARK   82  A    between atoms: _235  and  _236
REMARK   83  A    between atoms: _236  and  _237
REMARK   84  A    between atoms: _240  and  _242
REMARK   85  A    between atoms: _242  and  _243
REMARK   86  A    between atoms: _242  and  _245
REMARK   87  A    between atoms: _245  and  _246
REMARK   88  A    between atoms: _248  and  _250
REMARK   89  A    between atoms: _250  and  _251
REMARK   90  A    between atoms: _250  and  _253
REMARK   91  A    between atoms: _253  and  _254
REMARK   92  A    between atoms: _257  and  _259
REMARK   93  A    between atoms: _259  and  _260
REMARK   94  A    between atoms: _259  and  _262
REMARK   95  A    between atoms: _264  and  _266
REMARK   96  A    between atoms: _266  and  _267
REMARK   97  A    between atoms: _266  and  _269
REMARK   98  A    between atoms: _269  and  _270
REMARK   99  A    between atoms: _273  and  _275
REMARK  100  A    between atoms: _275  and  _276
REMARK  101  A    between atoms: _275  and  _278
REMARK  102  A    between atoms: _278  and  _279
REMARK  103  A    between atoms: _282  and  _284
REMARK  104  A    between atoms: _284  and  _285
REMARK  105  A    between atoms: _284  and  _287
REMARK  106  A    between atoms: _287  and  _288
REMARK                            x       y       z     vdW  Elec       q    Type
REMARK                         _______ _______ _______ _____ _____    ______ ____
ROOT
ATOM      1  O   HOH     1      89.892  86.911 -50.332  0.00  0.00    +0.000 OA
ENDROOT
TORSDOF 0
REMARK  Name = ../refined-set-2016/4agq/4agq_pocket.pdb
REMARK  106 active torsions:
REMARK  status: ('A' for Active; 'I' for Inactive)
REMARK    1  A    between atoms: _1  and  _3
REMARK    2  A    between atoms: _3  and  _4
REMARK    3  A    between atoms: _3  and  _6
REMARK    4  A    between atoms: _6  and  _7
REMARK    5  A    between atoms: _12  and  _13
REMARK    6  A    between atoms: _15  and  _17
REMARK    7  A    between atoms: _17  and  _18
REMARK    8  A    between atoms: _17  and  _20
REMARK    9  A    between atoms: _20  and  _21
REMARK   10  A    between atoms: _27  and  _29
REMARK   11  A    between atoms: _29  and  _30
REMARK   12  A    between atoms: _29  and  _32
REMARK   13  A    between atoms: _32  and  _33
REMARK   14  A    between atoms: _33  and  _34
REMARK   15  A    between atoms: _34  and  _35
REMARK   16  A    between atoms: _44  and  _46
REMARK   17  A    between atoms: _46  and  _47
REMARK   18  A    between atoms: _46  and  _49
REMARK   19  A    between atoms: _49  and  _50
REMARK   20  A    between atoms: _50  and  _51
REMARK   21  A    between atoms: _56  and  _58
REMARK   22  A    between atoms: _58  and  _59
REMARK   23  A    between atoms: _58  and  _61
REMARK   24  A    between atoms: _61  and  _62
REMARK   25  A    between atoms: _65  and  _67
REMARK   26  A    between atoms: _67  and  _68
REMARK   27  A    between atoms: _67  and  _70
REMARK   28  A    between atoms: _70  and  _71
REMARK   29  A    between atoms: _81  and  _83
REMARK   30  A    between atoms: _83  and  _84
REMARK   31  A    between atoms: _83  and  _86
REMARK   32  A    between atoms: _89  and  _91
REMARK   33  A    between atoms: _91  and  _92
REMARK   34  A    between atoms: _91  and  _94
REMARK   35  A    between atoms: _94  and  _95
REMARK   36  A    between atoms: _98  and  _100
REMARK   37  A    between atoms: _100  and  _101
REMARK   38  A    between atoms: _100  and  _103
REMARK   39  A    between atoms: _103  and  _104
REMARK   40  A    between atoms: _106  and  _108
REMARK   41  A    between atoms: _108  and  _109
REMARK   42  A    between atoms: _108  and  _111
REMARK   43  A    between atoms: _111  and  _112
REMARK   44  A    between atoms: _116  and  _117
REMARK   45  A    between atoms: _123  and  _124
REMARK   46  A    between atoms: _130  and  _131
REMARK   47  A    between atoms: _136  and  _138
REMARK   48  A    between atoms: _138  and  _139
REMARK   49  A    between atoms: _141  and  _143
REMARK   50  A    between atoms: _143  and  _144
REMARK   51  A    between atoms: _143  and  _146
REMARK   52  A    between atoms: _146  and  _147
REMARK   53  A    between atoms: _150  and  _152
REMARK   54  A    between atoms: _152  and  _153
REMARK   55  A    between atoms: _152  and  _155
REMARK   56  A    between atoms: _155  and  _156
REMARK   57  A    between atoms: _156  and  _157
REMARK   58  A    between atoms: _157  and  _158
REMARK   59  A    between atoms: _167  and  _169
REMARK   60  A    between atoms: _169  and  _170
REMARK   61  A    between atoms: _169  and  _172
REMARK   62  A    between atoms: _175  and  _177
REMARK   63  A    between atoms: _177  and  _178
REMARK   64  A    between atoms: _177  and  _180
REMARK   65  A    between atoms: _180  and  _181
REMARK   66  A    between atoms: _181  and  _182
REMARK   67  A    between atoms: _182  and  _183
REMARK   68  A    between atoms: _193  and  _194
REMARK   69  A    between atoms: _199  and  _201
REMARK   70  A    between atoms: _201  and  _202
REMARK   71  A    between atoms: _201  and  _204
REMARK   72  A    between atoms: _206  and  _208
REMARK   73  A    between atoms: _208  and  _209
REMARK   74  A    between atoms: _208  and  _211
REMARK   75  A    between atoms: _211  and  _212
REMARK   76  A    between atoms: _212  and  _213
REMARK   77  A    between atoms: _217  and  _218
REMARK   78  A    between atoms: _224  and  _225
REMARK   79  A    between atoms: _230  and  _232
REMARK   80  A    between atoms: _232  and  _233
REMARK   81  A    between atoms: _232  and  _235
REMARK   82  A    between atoms: _235  and  _236
REMARK   83  A    between atoms: _236  and  _237
REMARK   84  A    between atoms: _240  and  _242
REMARK   85  A    between atoms: _242  and  _243
REMARK   86  A    between atoms: _242  and  _245
REMARK   87  A    between atoms: _245  and  _246
REMARK   88  A    between atoms: _248  and  _250
REMARK   89  A    between atoms: _250  and  _251
REMARK   90  A    between atoms: _250  and  _253
REMARK   91  A    between atoms: _253  and  _254
REMARK   92  A    between atoms: _257  and  _259
REMARK   93  A    between atoms: _259  and  _260
REMARK   94  A    between atoms: _259  and  _262
REMARK   95  A    between atoms: _264  and  _266
REMARK   96  A    between atoms: _266  and  _267
REMARK   97  A    between atoms: _266  and  _269
REMARK   98  A    between atoms: _269  and  _270
REMARK   99  A    between atoms: _273  and  _275
REMARK  100  A    between atoms: _275  and  _276
REMARK  101  A    between atoms: _275  and  _278
REMARK  102  A    between atoms: _278  and  _279
REMARK  103  A    between atoms: _282  and  _284
REMARK  104  A    between atoms: _284  and  _285
REMARK  105  A    between atoms: _284  and  _287
REMARK  106  A    between atoms: _287  and  _288
REMARK                            x       y       z     vdW  Elec       q    Type
REMARK                         _______ _______ _______ _____ _____    ______ ____
ROOT
ATOM      1  O   HOH     1      91.231  83.965 -49.252  0.00  0.00    +0.000 OA
ENDROOT
TORSDOF 0
REMARK  Name = ../refined-set-2016/4agq/4agq_pocket.pdb
REMARK  106 active torsions:
REMARK  status: ('A' for Active; 'I' for Inactive)
REMARK    1  A    between atoms: _1  and  _3
REMARK    2  A    between atoms: _3  and  _4
REMARK    3  A    between atoms: _3  and  _6
REMARK    4  A    between atoms: _6  and  _7
REMARK    5  A    between atoms: _12  and  _13
REMARK    6  A    between atoms: _15  and  _17
REMARK    7  A    between atoms: _17  and  _18
REMARK    8  A    between atoms: _17  and  _20
REMARK    9  A    between atoms: _20  and  _21
REMARK   10  A    between atoms: _27  and  _29
REMARK   11  A    between atoms: _29  and  _30
REMARK   12  A    between atoms: _29  and  _32
REMARK   13  A    between atoms: _32  and  _33
REMARK   14  A    between atoms: _33  and  _34
REMARK   15  A    between atoms: _34  and  _35
REMARK   16  A    between atoms: _44  and  _46
REMARK   17  A    between atoms: _46  and  _47
REMARK   18  A    between atoms: _46  and  _49
REMARK   19  A    between atoms: _49  and  _50
REMARK   20  A    between atoms: _50  and  _51
REMARK   21  A    between atoms: _56  and  _58
REMARK   22  A    between atoms: _58  and  _59
REMARK   23  A    between atoms: _58  and  _61
REMARK   24  A    between atoms: _61  and  _62
REMARK   25  A    between atoms: _65  and  _67
REMARK   26  A    between atoms: _67  and  _68
REMARK   27  A    between atoms: _67  and  _70
REMARK   28  A    between atoms: _70  and  _71
REMARK   29  A    between atoms: _81  and  _83
REMARK   30  A    between atoms: _83  and  _84
REMARK   31  A    between atoms: _83  and  _86
REMARK   32  A    between atoms: _89  and  _91
REMARK   33  A    between atoms: _91  and  _92
REMARK   34  A    between atoms: _91  and  _94
REMARK   35  A    between atoms: _94  and  _95
REMARK   36  A    between atoms: _98  and  _100
REMARK   37  A    between atoms: _100  and  _101
REMARK   38  A    between atoms: _100  and  _103
REMARK   39  A    between atoms: _103  and  _104
REMARK   40  A    between atoms: _106  and  _108
REMARK   41  A    between atoms: _108  and  _109
REMARK   42  A    between atoms: _108  and  _111
REMARK   43  A    between atoms: _111  and  _112
REMARK   44  A    between atoms: _116  and  _117
REMARK   45  A    between atoms: _123  and  _124
REMARK   46  A    between atoms: _130  and  _131
REMARK   47  A    between atoms: _136  and  _138
REMARK   48  A    between atoms: _138  and  _139
REMARK   49  A    between atoms: _141  and  _143
REMARK   50  A    between atoms: _143  and  _144
REMARK   51  A    between atoms: _143  and  _146
REMARK   52  A    between atoms: _146  and  _147
REMARK   53  A    between atoms: _150  and  _152
REMARK   54  A    between atoms: _152  and  _153
REMARK   55  A    between atoms: _152  and  _155
REMARK   56  A    between atoms: _155  and  _156
REMARK   57  A    between atoms: _156  and  _157
REMARK   58  A    between atoms: _157  and  _158
REMARK   59  A    between atoms: _167  and  _169
REMARK   60  A    between atoms: _169  and  _170
REMARK   61  A    between atoms: _169  and  _172
REMARK   62  A    between atoms: _175  and  _177
REMARK   63  A    between atoms: _177  and  _178
REMARK   64  A    between atoms: _177  and  _180
REMARK   65  A    between atoms: _180  and  _181
REMARK   66  A    between atoms: _181  and  _182
REMARK   67  A    between atoms: _182  and  _183
REMARK   68  A    between atoms: _193  and  _194
REMARK   69  A    between atoms: _199  and  _201
REMARK   70  A    between atoms: _201  and  _202
REMARK   71  A    between atoms: _201  and  _204
REMARK   72  A    between atoms: _206  and  _208
REMARK   73  A    between atoms: _208  and  _209
REMARK   74  A    between atoms: _208  and  _211
REMARK   75  A    between atoms: _211  and  _212
REMARK   76  A    between atoms: _212  and  _213
REMARK   77  A    between atoms: _217  and  _218
REMARK   78  A    between atoms: _224  and  _225
REMARK   79  A    between atoms: _230  and  _232
REMARK   80  A    between atoms: _232  and  _233
REMARK   81  A    between atoms: _232  and  _235
REMARK   82  A    between atoms: _235  and  _236
REMARK   83  A    between atoms: _236  and  _237
REMARK   84  A    between atoms: _240  and  _242
REMARK   85  A    between atoms: _242  and  _243
REMARK   86  A    between atoms: _242  and  _245
REMARK   87  A    between atoms: _245  and  _246
REMARK   88  A    between atoms: _248  and  _250
REMARK   89  A    between atoms: _250  and  _251
REMARK   90  A    between atoms: _250  and  _253
REMARK   91  A    between atoms: _253  and  _254
REMARK   92  A    between atoms: _257  and  _259
REMARK   93  A    between atoms: _259  and  _260
REMARK   94  A    between atoms: _259  and  _262
REMARK   95  A    between atoms: _264  and  _266
REMARK   96  A    between atoms: _266  and  _267
REMARK   97  A    between atoms: _266  and  _269
REMARK   98  A    between atoms: _269  and  _270
REMARK   99  A    between atoms: _273  and  _275
REMARK  100  A    between atoms: _275  and  _276
REMARK  101  A    between atoms: _275  and  _278
REMARK  102  A    between atoms: _278  and  _279
REMARK  103  A    between atoms: _282  and  _284
REMARK  104  A    between atoms: _284  and  _285
REMARK  105  A    between atoms: _284  and  _287
REMARK  106  A    between atoms: _287  and  _288
REMARK                            x       y       z     vdW  Elec       q    Type
REMARK                         _______ _______ _______ _____ _____    ______ ____
ROOT
ATOM      1  O   HOH     1      92.210  86.495 -48.022  0.00  0.00    +0.000 OA
ENDROOT
TORSDOF 0
REMARK  Name = ../refined-set-2016/4agq/4agq_pocket.pdb
REMARK  106 active torsions:
REMARK  status: ('A' for Active; 'I' for Inactive)
REMARK    1  A    between atoms: _1  and  _3
REMARK    2  A    between atoms: _3  and  _4
REMARK    3  A    between atoms: _3  and  _6
REMARK    4  A    between atoms: _6  and  _7
REMARK    5  A    between atoms: _12  and  _13
REMARK    6  A    between atoms: _15  and  _17
REMARK    7  A    between atoms: _17  and  _18
REMARK    8  A    between atoms: _17  and  _20
REMARK    9  A    between atoms: _20  and  _21
REMARK   10  A    between atoms: _27  and  _29
REMARK   11  A    between atoms: _29  and  _30
REMARK   12  A    between atoms: _29  and  _32
REMARK   13  A    between atoms: _32  and  _33
REMARK   14  A    between atoms: _33  and  _34
REMARK   15  A    between atoms: _34  and  _35
REMARK   16  A    between atoms: _44  and  _46
REMARK   17  A    between atoms: _46  and  _47
REMARK   18  A    between atoms: _46  and  _49
REMARK   19  A    between atoms: _49  and  _50
REMARK   20  A    between atoms: _50  and  _51
REMARK   21  A    between atoms: _56  and  _58
REMARK   22  A    between atoms: _58  and  _59
REMARK   23  A    between atoms: _58  and  _61
REMARK   24  A    between atoms: _61  and  _62
REMARK   25  A    between atoms: _65  and  _67
REMARK   26  A    between atoms: _67  and  _68
REMARK   27  A    between atoms: _67  and  _70
REMARK   28  A    between atoms: _70  and  _71
REMARK   29  A    between atoms: _81  and  _83
REMARK   30  A    between atoms: _83  and  _84
REMARK   31  A    between atoms: _83  and  _86
REMARK   32  A    between atoms: _89  and  _91
REMARK   33  A    between atoms: _91  and  _92
REMARK   34  A    between atoms: _91  and  _94
REMARK   35  A    between atoms: _94  and  _95
REMARK   36  A    between atoms: _98  and  _100
REMARK   37  A    between atoms: _100  and  _101
REMARK   38  A    between atoms: _100  and  _103
REMARK   39  A    between atoms: _103  and  _104
REMARK   40  A    between atoms: _106  and  _108
REMARK   41  A    between atoms: _108  and  _109
REMARK   42  A    between atoms: _108  and  _111
REMARK   43  A    between atoms: _111  and  _112
REMARK   44  A    between atoms: _116  and  _117
REMARK   45  A    between atoms: _123  and  _124
REMARK   46  A    between atoms: _130  and  _131
REMARK   47  A    between atoms: _136  and  _138
REMARK   48  A    between atoms: _138  and  _139
REMARK   49  A    between atoms: _141  and  _143
REMARK   50  A    between atoms: _143  and  _144
REMARK   51  A    between atoms: _143  and  _146
REMARK   52  A    between atoms: _146  and  _147
REMARK   53  A    between atoms: _150  and  _152
REMARK   54  A    between atoms: _152  and  _153
REMARK   55  A    between atoms: _152  and  _155
REMARK   56  A    between atoms: _155  and  _156
REMARK   57  A    between atoms: _156  and  _157
REMARK   58  A    between atoms: _157  and  _158
REMARK   59  A    between atoms: _167  and  _169
REMARK   60  A    between atoms: _169  and  _170
REMARK   61  A    between atoms: _169  and  _172
REMARK   62  A    between atoms: _175  and  _177
REMARK   63  A    between atoms: _177  and  _178
REMARK   64  A    between atoms: _177  and  _180
REMARK   65  A    between atoms: _180  and  _181
REMARK   66  A    between atoms: _181  and  _182
REMARK   67  A    between atoms: _182  and  _183
REMARK   68  A    between atoms: _193  and  _194
REMARK   69  A    between atoms: _199  and  _201
REMARK   70  A    between atoms: _201  and  _202
REMARK   71  A    between atoms: _201  and  _204
REMARK   72  A    between atoms: _206  and  _208
REMARK   73  A    between atoms: _208  and  _209
REMARK   74  A    between atoms: _208  and  _211
REMARK   75  A    between atoms: _211  and  _212
REMARK   76  A    between atoms: _212  and  _213
REMARK   77  A    between atoms: _217  and  _218
REMARK   78  A    between atoms: _224  and  _225
REMARK   79  A    between atoms: _230  and  _232
REMARK   80  A    between atoms: _232  and  _233
REMARK   81  A    between atoms: _232  and  _235
REMARK   82  A    between atoms: _235  and  _236
REMARK   83  A    between atoms: _236  and  _237
REMARK   84  A    between atoms: _240  and  _242
REMARK   85  A    between atoms: _242  and  _243
REMARK   86  A    between atoms: _242  and  _245
REMARK   87  A    between atoms: _245  and  _246
REMARK   88  A    between atoms: _248  and  _250
REMARK   89  A    between atoms: _250  and  _251
REMARK   90  A    between atoms: _250  and  _253
REMARK   91  A    between atoms: _253  and  _254
REMARK   92  A    between atoms: _257  and  _259
REMARK   93  A    between atoms: _259  and  _260
REMARK   94  A    between atoms: _259  and  _262
REMARK   95  A    between atoms: _264  and  _266
REMARK   96  A    between atoms: _266  and  _267
REMARK   97  A    between atoms: _266  and  _269
REMARK   98  A    between atoms: _269  and  _270
REMARK   99  A    between atoms: _273  and  _275
REMARK  100  A    between atoms: _275  and  _276
REMARK  101  A    between atoms: _275  and  _278
REMARK  102  A    between atoms: _278  and  _279
REMARK  103  A    between atoms: _282  and  _284
REMARK  104  A    between atoms: _284  and  _285
REMARK  105  A    between atoms: _284  and  _287
REMARK  106  A    between atoms: _287  and  _288
REMARK                            x       y       z     vdW  Elec       q    Type
REMARK                         _______ _______ _______ _____ _____    ______ ____
ROOT
ATOM      1  O   HOH     1      86.625  97.438 -45.167  0.00  0.00    +0.000 OA
ENDROOT
TORSDOF 0
REMARK  Name = ../refined-set-2016/4agq/4agq_pocket.pdb
REMARK  106 active torsions:
REMARK  status: ('A' for Active; 'I' for Inactive)
REMARK    1  A    between atoms: _1  and  _3
REMARK    2  A    between atoms: _3  and  _4
REMARK    3  A    between atoms: _3  and  _6
REMARK    4  A    between atoms: _6  and  _7
REMARK    5  A    between atoms: _12  and  _13
REMARK    6  A    between atoms: _15  and  _17
REMARK    7  A    between atoms: _17  and  _18
REMARK    8  A    between atoms: _17  and  _20
REMARK    9  A    between atoms: _20  and  _21
REMARK   10  A    between atoms: _27  and  _29
REMARK   11  A    between atoms: _29  and  _30
REMARK   12  A    between atoms: _29  and  _32
REMARK   13  A    between atoms: _32  and  _33
REMARK   14  A    between atoms: _33  and  _34
REMARK   15  A    between atoms: _34  and  _35
REMARK   16  A    between atoms: _44  and  _46
REMARK   17  A    between atoms: _46  and  _47
REMARK   18  A    between atoms: _46  and  _49
REMARK   19  A    between atoms: _49  and  _50
REMARK   20  A    between atoms: _50  and  _51
REMARK   21  A    between atoms: _56  and  _58
REMARK   22  A    between atoms: _58  and  _59
REMARK   23  A    between atoms: _58  and  _61
REMARK   24  A    between atoms: _61  and  _62
REMARK   25  A    between atoms: _65  and  _67
REMARK   26  A    between atoms: _67  and  _68
REMARK   27  A    between atoms: _67  and  _70
REMARK   28  A    between atoms: _70  and  _71
REMARK   29  A    between atoms: _81  and  _83
REMARK   30  A    between atoms: _83  and  _84
REMARK   31  A    between atoms: _83  and  _86
REMARK   32  A    between atoms: _89  and  _91
REMARK   33  A    between atoms: _91  and  _92
REMARK   34  A    between atoms: _91  and  _94
REMARK   35  A    between atoms: _94  and  _95
REMARK   36  A    between atoms: _98  and  _100
REMARK   37  A    between atoms: _100  and  _101
REMARK   38  A    between atoms: _100  and  _103
REMARK   39  A    between atoms: _103  and  _104
REMARK   40  A    between atoms: _106  and  _108
REMARK   41  A    between atoms: _108  and  _109
REMARK   42  A    between atoms: _108  and  _111
REMARK   43  A    between atoms: _111  and  _112
REMARK   44  A    between atoms: _116  and  _117
REMARK   45  A    between atoms: _123  and  _124
REMARK   46  A    between atoms: _130  and  _131
REMARK   47  A    between atoms: _136  and  _138
REMARK   48  A    between atoms: _138  and  _139
REMARK   49  A    between atoms: _141  and  _143
REMARK   50  A    between atoms: _143  and  _144
REMARK   51  A    between atoms: _143  and  _146
REMARK   52  A    between atoms: _146  and  _147
REMARK   53  A    between atoms: _150  and  _152
REMARK   54  A    between atoms: _152  and  _153
REMARK   55  A    between atoms: _152  and  _155
REMARK   56  A    between atoms: _155  and  _156
REMARK   57  A    between atoms: _156  and  _157
REMARK   58  A    between atoms: _157  and  _158
REMARK   59  A    between atoms: _167  and  _169
REMARK   60  A    between atoms: _169  and  _170
REMARK   61  A    between atoms: _169  and  _172
REMARK   62  A    between atoms: _175  and  _177
REMARK   63  A    between atoms: _177  and  _178
REMARK   64  A    between atoms: _177  and  _180
REMARK   65  A    between atoms: _180  and  _181
REMARK   66  A    between atoms: _181  and  _182
REMARK   67  A    between atoms: _182  and  _183
REMARK   68  A    between atoms: _193  and  _194
REMARK   69  A    between atoms: _199  and  _201
REMARK   70  A    between atoms: _201  and  _202
REMARK   71  A    between atoms: _201  and  _204
REMARK   72  A    between atoms: _206  and  _208
REMARK   73  A    between atoms: _208  and  _209
REMARK   74  A    between atoms: _208  and  _211
REMARK   75  A    between atoms: _211  and  _212
REMARK   76  A    between atoms: _212  and  _213
REMARK   77  A    between atoms: _217  and  _218
REMARK   78  A    between atoms: _224  and  _225
REMARK   79  A    between atoms: _230  and  _232
REMARK   80  A    between atoms: _232  and  _233
REMARK   81  A    between atoms: _232  and  _235
REMARK   82  A    between atoms: _235  and  _236
REMARK   83  A    between atoms: _236  and  _237
REMARK   84  A    between atoms: _240  and  _242
REMARK   85  A    between atoms: _242  and  _243
REMARK   86  A    between atoms: _242  and  _245
REMARK   87  A    between atoms: _245  and  _246
REMARK   88  A    between atoms: _248  and  _250
REMARK   89  A    between atoms: _250  and  _251
REMARK   90  A    between atoms: _250  and  _253
REMARK   91  A    between atoms: _253  and  _254
REMARK   92  A    between atoms: _257  and  _259
REMARK   93  A    between atoms: _259  and  _260
REMARK   94  A    between atoms: _259  and  _262
REMARK   95  A    between atoms: _264  and  _266
REMARK   96  A    between atoms: _266  and  _267
REMARK   97  A    between atoms: _266  and  _269
REMARK   98  A    between atoms: _269  and  _270
REMARK   99  A    between atoms: _273  and  _275
REMARK  100  A    between atoms: _275  and  _276
REMARK  101  A    between atoms: _275  and  _278
REMARK  102  A    between atoms: _278  and  _279
REMARK  103  A    between atoms: _282  and  _284
REMARK  104  A    between atoms: _284  and  _285
REMARK  105  A    between atoms: _284  and  _287
REMARK  106  A    between atoms: _287  and  _288
REMARK                            x       y       z     vdW  Elec       q    Type
REMARK                         _______ _______ _______ _____ _____    ______ ____
ROOT
ATOM      1  O   HOH     1      90.810  88.015 -40.704  0.00  0.00    +0.000 OA
ENDROOT
TORSDOF 0
REMARK  Name = ../refined-set-2016/4agq/4agq_pocket.pdb
REMARK  106 active torsions:
REMARK  status: ('A' for Active; 'I' for Inactive)
REMARK    1  A    between atoms: _1  and  _3
REMARK    2  A    between atoms: _3  and  _4
REMARK    3  A    between atoms: _3  and  _6
REMARK    4  A    between atoms: _6  and  _7
REMARK    5  A    between atoms: _12  and  _13
REMARK    6  A    between atoms: _15  and  _17
REMARK    7  A    between atoms: _17  and  _18
REMARK    8  A    between atoms: _17  and  _20
REMARK    9  A    between atoms: _20  and  _21
REMARK   10  A    between atoms: _27  and  _29
REMARK   11  A    between atoms: _29  and  _30
REMARK   12  A    between atoms: _29  and  _32
REMARK   13  A    between atoms: _32  and  _33
REMARK   14  A    between atoms: _33  and  _34
REMARK   15  A    between atoms: _34  and  _35
REMARK   16  A    between atoms: _44  and  _46
REMARK   17  A    between atoms: _46  and  _47
REMARK   18  A    between atoms: _46  and  _49
REMARK   19  A    between atoms: _49  and  _50
REMARK   20  A    between atoms: _50  and  _51
REMARK   21  A    between atoms: _56  and  _58
REMARK   22  A    between atoms: _58  and  _59
REMARK   23  A    between atoms: _58  and  _61
REMARK   24  A    between atoms: _61  and  _62
REMARK   25  A    between atoms: _65  and  _67
REMARK   26  A    between atoms: _67  and  _68
REMARK   27  A    between atoms: _67  and  _70
REMARK   28  A    between atoms: _70  and  _71
REMARK   29  A    between atoms: _81  and  _83
REMARK   30  A    between atoms: _83  and  _84
REMARK   31  A    between atoms: _83  and  _86
REMARK   32  A    between atoms: _89  and  _91
REMARK   33  A    between atoms: _91  and  _92
REMARK   34  A    between atoms: _91  and  _94
REMARK   35  A    between atoms: _94  and  _95
REMARK   36  A    between atoms: _98  and  _100
REMARK   37  A    between atoms: _100  and  _101
REMARK   38  A    between atoms: _100  and  _103
REMARK   39  A    between atoms: _103  and  _104
REMARK   40  A    between atoms: _106  and  _108
REMARK   41  A    between atoms: _108  and  _109
REMARK   42  A    between atoms: _108  and  _111
REMARK   43  A    between atoms: _111  and  _112
REMARK   44  A    between atoms: _116  and  _117
REMARK   45  A    between atoms: _123  and  _124
REMARK   46  A    between atoms: _130  and  _131
REMARK   47  A    between atoms: _136  and  _138
REMARK   48  A    between atoms: _138  and  _139
REMARK   49  A    between atoms: _141  and  _143
REMARK   50  A    between atoms: _143  and  _144
REMARK   51  A    between atoms: _143  and  _146
REMARK   52  A    between atoms: _146  and  _147
REMARK   53  A    between atoms: _150  and  _152
REMARK   54  A    between atoms: _152  and  _153
REMARK   55  A    between atoms: _152  and  _155
REMARK   56  A    between atoms: _155  and  _156
REMARK   57  A    between atoms: _156  and  _157
REMARK   58  A    between atoms: _157  and  _158
REMARK   59  A    between atoms: _167  and  _169
REMARK   60  A    between atoms: _169  and  _170
REMARK   61  A    between atoms: _169  and  _172
REMARK   62  A    between atoms: _175  and  _177
REMARK   63  A    between atoms: _177  and  _178
REMARK   64  A    between atoms: _177  and  _180
REMARK   65  A    between atoms: _180  and  _181
REMARK   66  A    between atoms: _181  and  _182
REMARK   67  A    between atoms: _182  and  _183
REMARK   68  A    between atoms: _193  and  _194
REMARK   69  A    between atoms: _199  and  _201
REMARK   70  A    between atoms: _201  and  _202
REMARK   71  A    between atoms: _201  and  _204
REMARK   72  A    between atoms: _206  and  _208
REMARK   73  A    between atoms: _208  and  _209
REMARK   74  A    between atoms: _208  and  _211
REMARK   75  A    between atoms: _211  and  _212
REMARK   76  A    between atoms: _212  and  _213
REMARK   77  A    between atoms: _217  and  _218
REMARK   78  A    between atoms: _224  and  _225
REMARK   79  A    between atoms: _230  and  _232
REMARK   80  A    between atoms: _232  and  _233
REMARK   81  A    between atoms: _232  and  _235
REMARK   82  A    between atoms: _235  and  _236
REMARK   83  A    between atoms: _236  and  _237
REMARK   84  A    between atoms: _240  and  _242
REMARK   85  A    between atoms: _242  and  _243
REMARK   86  A    between atoms: _242  and  _245
REMARK   87  A    between atoms: _245  and  _246
REMARK   88  A    between atoms: _248  and  _250
REMARK   89  A    between atoms: _250  and  _251
REMARK   90  A    between atoms: _250  and  _253
REMARK   91  A    between atoms: _253  and  _254
REMARK   92  A    between atoms: _257  and  _259
REMARK   93  A    between atoms: _259  and  _260
REMARK   94  A    between atoms: _259  and  _262
REMARK   95  A    between atoms: _264  and  _266
REMARK   96  A    between atoms: _266  and  _267
REMARK   97  A    between atoms: _266  and  _269
REMARK   98  A    between atoms: _269  and  _270
REMARK   99  A    between atoms: _273  and  _275
REMARK  100  A    between atoms: _275  and  _276
REMARK  101  A    between atoms: _275  and  _278
REMARK  102  A    between atoms: _278  and  _279
REMARK  103  A    between atoms: _282  and  _284
REMARK  104  A    between atoms: _284  and  _285
REMARK  105  A    between atoms: _284  and  _287
REMARK  106  A    between atoms: _287  and  _288
REMARK                            x       y       z     vdW  Elec       q    Type
REMARK                         _______ _______ _______ _____ _____    ______ ____
ROOT
ATOM      1  O   HOH     1      92.470  90.195 -41.372  0.00  0.00    +0.000 OA
ENDROOT
TORSDOF 0
REMARK  Name = ../refined-set-2016/4agq/4agq_pocket.pdb
REMARK  106 active torsions:
REMARK  status: ('A' for Active; 'I' for Inactive)
REMARK    1  A    between atoms: _1  and  _3
REMARK    2  A    between atoms: _3  and  _4
REMARK    3  A    between atoms: _3  and  _6
REMARK    4  A    between atoms: _6  and  _7
REMARK    5  A    between atoms: _12  and  _13
REMARK    6  A    between atoms: _15  and  _17
REMARK    7  A    between atoms: _17  and  _18
REMARK    8  A    between atoms: _17  and  _20
REMARK    9  A    between atoms: _20  and  _21
REMARK   10  A    between atoms: _27  and  _29
REMARK   11  A    between atoms: _29  and  _30
REMARK   12  A    between atoms: _29  and  _32
REMARK   13  A    between atoms: _32  and  _33
REMARK   14  A    between atoms: _33  and  _34
REMARK   15  A    between atoms: _34  and  _35
REMARK   16  A    between atoms: _44  and  _46
REMARK   17  A    between atoms: _46  and  _47
REMARK   18  A    between atoms: _46  and  _49
REMARK   19  A    between atoms: _49  and  _50
REMARK   20  A    between atoms: _50  and  _51
REMARK   21  A    between atoms: _56  and  _58
REMARK   22  A    between atoms: _58  and  _59
REMARK   23  A    between atoms: _58  and  _61
REMARK   24  A    between atoms: _61  and  _62
REMARK   25  A    between atoms: _65  and  _67
REMARK   26  A    between atoms: _67  and  _68
REMARK   27  A    between atoms: _67  and  _70
REMARK   28  A    between atoms: _70  and  _71
REMARK   29  A    between atoms: _81  and  _83
REMARK   30  A    between atoms: _83  and  _84
REMARK   31  A    between atoms: _83  and  _86
REMARK   32  A    between atoms: _89  and  _91
REMARK   33  A    between atoms: _91  and  _92
REMARK   34  A    between atoms: _91  and  _94
REMARK   35  A    between atoms: _94  and  _95
REMARK   36  A    between atoms: _98  and  _100
REMARK   37  A    between atoms: _100  and  _101
REMARK   38  A    between atoms: _100  and  _103
REMARK   39  A    between atoms: _103  and  _104
REMARK   40  A    between atoms: _106  and  _108
REMARK   41  A    between atoms: _108  and  _109
REMARK   42  A    between atoms: _108  and  _111
REMARK   43  A    between atoms: _111  and  _112
REMARK   44  A    between atoms: _116  and  _117
REMARK   45  A    between atoms: _123  and  _124
REMARK   46  A    between atoms: _130  and  _131
REMARK   47  A    between atoms: _136  and  _138
REMARK   48  A    between atoms: _138  and  _139
REMARK   49  A    between atoms: _141  and  _143
REMARK   50  A    between atoms: _143  and  _144
REMARK   51  A    between atoms: _143  and  _146
REMARK   52  A    between atoms: _146  and  _147
REMARK   53  A    between atoms: _150  and  _152
REMARK   54  A    between atoms: _152  and  _153
REMARK   55  A    between atoms: _152  and  _155
REMARK   56  A    between atoms: _155  and  _156
REMARK   57  A    between atoms: _156  and  _157
REMARK   58  A    between atoms: _157  and  _158
REMARK   59  A    between atoms: _167  and  _169
REMARK   60  A    between atoms: _169  and  _170
REMARK   61  A    between atoms: _169  and  _172
REMARK   62  A    between atoms: _175  and  _177
REMARK   63  A    between atoms: _177  and  _178
REMARK   64  A    between atoms: _177  and  _180
REMARK   65  A    between atoms: _180  and  _181
REMARK   66  A    between atoms: _181  and  _182
REMARK   67  A    between atoms: _182  and  _183
REMARK   68  A    between atoms: _193  and  _194
REMARK   69  A    between atoms: _199  and  _201
REMARK   70  A    between atoms: _201  and  _202
REMARK   71  A    between atoms: _201  and  _204
REMARK   72  A    between atoms: _206  and  _208
REMARK   73  A    between atoms: _208  and  _209
REMARK   74  A    between atoms: _208  and  _211
REMARK   75  A    between atoms: _211  and  _212
REMARK   76  A    between atoms: _212  and  _213
REMARK   77  A    between atoms: _217  and  _218
REMARK   78  A    between atoms: _224  and  _225
REMARK   79  A    between atoms: _230  and  _232
REMARK   80  A    between atoms: _232  and  _233
REMARK   81  A    between atoms: _232  and  _235
REMARK   82  A    between atoms: _235  and  _236
REMARK   83  A    between atoms: _236  and  _237
REMARK   84  A    between atoms: _240  and  _242
REMARK   85  A    between atoms: _242  and  _243
REMARK   86  A    between atoms: _242  and  _245
REMARK   87  A    between atoms: _245  and  _246
REMARK   88  A    between atoms: _248  and  _250
REMARK   89  A    between atoms: _250  and  _251
REMARK   90  A    between atoms: _250  and  _253
REMARK   91  A    between atoms: _253  and  _254
REMARK   92  A    between atoms: _257  and  _259
REMARK   93  A    between atoms: _259  and  _260
REMARK   94  A    between atoms: _259  and  _262
REMARK   95  A    between atoms: _264  and  _266
REMARK   96  A    between atoms: _266  and  _267
REMARK   97  A    between atoms: _266  and  _269
REMARK   98  A    between atoms: _269  and  _270
REMARK   99  A    between atoms: _273  and  _275
REMARK  100  A    between atoms: _275  and  _276
REMARK  101  A    between atoms: _275  and  _278
REMARK  102  A    between atoms: _278  and  _279
REMARK  103  A    between atoms: _282  and  _284
REMARK  104  A    between atoms: _284  and  _285
REMARK  105  A    between atoms: _284  and  _287
REMARK  106  A    between atoms: _287  and  _288
REMARK                            x       y       z     vdW  Elec       q    Type
REMARK                         _______ _______ _______ _____ _____    ______ ____
ROOT
ATOM      1  O   HOH     1      94.534  91.615 -41.861  0.00  0.00    +0.000 OA
ENDROOT
TORSDOF 0
REMARK  Name = ../refined-set-2016/4agq/4agq_pocket.pdb
REMARK  106 active torsions:
REMARK  status: ('A' for Active; 'I' for Inactive)
REMARK    1  A    between atoms: _1  and  _3
REMARK    2  A    between atoms: _3  and  _4
REMARK    3  A    between atoms: _3  and  _6
REMARK    4  A    between atoms: _6  and  _7
REMARK    5  A    between atoms: _12  and  _13
REMARK    6  A    between atoms: _15  and  _17
REMARK    7  A    between atoms: _17  and  _18
REMARK    8  A    between atoms: _17  and  _20
REMARK    9  A    between atoms: _20  and  _21
REMARK   10  A    between atoms: _27  and  _29
REMARK   11  A    between atoms: _29  and  _30
REMARK   12  A    between atoms: _29  and  _32
REMARK   13  A    between atoms: _32  and  _33
REMARK   14  A    between atoms: _33  and  _34
REMARK   15  A    between atoms: _34  and  _35
REMARK   16  A    between atoms: _44  and  _46
REMARK   17  A    between atoms: _46  and  _47
REMARK   18  A    between atoms: _46  and  _49
REMARK   19  A    between atoms: _49  and  _50
REMARK   20  A    between atoms: _50  and  _51
REMARK   21  A    between atoms: _56  and  _58
REMARK   22  A    between atoms: _58  and  _59
REMARK   23  A    between atoms: _58  and  _61
REMARK   24  A    between atoms: _61  and  _62
REMARK   25  A    between atoms: _65  and  _67
REMARK   26  A    between atoms: _67  and  _68
REMARK   27  A    between atoms: _67  and  _70
REMARK   28  A    between atoms: _70  and  _71
REMARK   29  A    between atoms: _81  and  _83
REMARK   30  A    between atoms: _83  and  _84
REMARK   31  A    between atoms: _83  and  _86
REMARK   32  A    between atoms: _89  and  _91
REMARK   33  A    between atoms: _91  and  _92
REMARK   34  A    between atoms: _91  and  _94
REMARK   35  A    between atoms: _94  and  _95
REMARK   36  A    between atoms: _98  and  _100
REMARK   37  A    between atoms: _100  and  _101
REMARK   38  A    between atoms: _100  and  _103
REMARK   39  A    between atoms: _103  and  _104
REMARK   40  A    between atoms: _106  and  _108
REMARK   41  A    between atoms: _108  and  _109
REMARK   42  A    between atoms: _108  and  _111
REMARK   43  A    between atoms: _111  and  _112
REMARK   44  A    between atoms: _116  and  _117
REMARK   45  A    between atoms: _123  and  _124
REMARK   46  A    between atoms: _130  and  _131
REMARK   47  A    between atoms: _136  and  _138
REMARK   48  A    between atoms: _138  and  _139
REMARK   49  A    between atoms: _141  and  _143
REMARK   50  A    between atoms: _143  and  _144
REMARK   51  A    between atoms: _143  and  _146
REMARK   52  A    between atoms: _146  and  _147
REMARK   53  A    between atoms: _150  and  _152
REMARK   54  A    between atoms: _152  and  _153
REMARK   55  A    between atoms: _152  and  _155
REMARK   56  A    between atoms: _155  and  _156
REMARK   57  A    between atoms: _156  and  _157
REMARK   58  A    between atoms: _157  and  _158
REMARK   59  A    between atoms: _167  and  _169
REMARK   60  A    between atoms: _169  and  _170
REMARK   61  A    between atoms: _169  and  _172
REMARK   62  A    between atoms: _175  and  _177
REMARK   63  A    between atoms: _177  and  _178
REMARK   64  A    between atoms: _177  and  _180
REMARK   65  A    between atoms: _180  and  _181
REMARK   66  A    between atoms: _181  and  _182
REMARK   67  A    between atoms: _182  and  _183
REMARK   68  A    between atoms: _193  and  _194
REMARK   69  A    between atoms: _199  and  _201
REMARK   70  A    between atoms: _201  and  _202
REMARK   71  A    between atoms: _201  and  _204
REMARK   72  A    between atoms: _206  and  _208
REMARK   73  A    between atoms: _208  and  _209
REMARK   74  A    between atoms: _208  and  _211
REMARK   75  A    between atoms: _211  and  _212
REMARK   76  A    between atoms: _212  and  _213
REMARK   77  A    between atoms: _217  and  _218
REMARK   78  A    between atoms: _224  and  _225
REMARK   79  A    between atoms: _230  and  _232
REMARK   80  A    between atoms: _232  and  _233
REMARK   81  A    between atoms: _232  and  _235
REMARK   82  A    between atoms: _235  and  _236
REMARK   83  A    between atoms: _236  and  _237
REMARK   84  A    between atoms: _240  and  _242
REMARK   85  A    between atoms: _242  and  _243
REMARK   86  A    between atoms: _242  and  _245
REMARK   87  A    between atoms: _245  and  _246
REMARK   88  A    between atoms: _248  and  _250
REMARK   89  A    between atoms: _250  and  _251
REMARK   90  A    between atoms: _250  and  _253
REMARK   91  A    between atoms: _253  and  _254
REMARK   92  A    between atoms: _257  and  _259
REMARK   93  A    between atoms: _259  and  _260
REMARK   94  A    between atoms: _259  and  _262
REMARK   95  A    between atoms: _264  and  _266
REMARK   96  A    between atoms: _266  and  _267
REMARK   97  A    between atoms: _266  and  _269
REMARK   98  A    between atoms: _269  and  _270
REMARK   99  A    between atoms: _273  and  _275
REMARK  100  A    between atoms: _275  and  _276
REMARK  101  A    between atoms: _275  and  _278
REMARK  102  A    between atoms: _278  and  _279
REMARK  103  A    between atoms: _282  and  _284
REMARK  104  A    between atoms: _284  and  _285
REMARK  105  A    between atoms: _284  and  _287
REMARK  106  A    between atoms: _287  and  _288
REMARK                            x       y       z     vdW  Elec       q    Type
REMARK                         _______ _______ _______ _____ _____    ______ ____
ROOT
ATOM      1  O   HOH     1      84.539  90.637 -44.479  0.00  0.00    +0.000 OA
ENDROOT
TORSDOF 0
REMARK  Name = ../refined-set-2016/4agq/4agq_pocket.pdb
REMARK  106 active torsions:
REMARK  status: ('A' for Active; 'I' for Inactive)
REMARK    1  A    between atoms: _1  and  _3
REMARK    2  A    between atoms: _3  and  _4
REMARK    3  A    between atoms: _3  and  _6
REMARK    4  A    between atoms: _6  and  _7
REMARK    5  A    between atoms: _12  and  _13
REMARK    6  A    between atoms: _15  and  _17
REMARK    7  A    between atoms: _17  and  _18
REMARK    8  A    between atoms: _17  and  _20
REMARK    9  A    between atoms: _20  and  _21
REMARK   10  A    between atoms: _27  and  _29
REMARK   11  A    between atoms: _29  and  _30
REMARK   12  A    between atoms: _29  and  _32
REMARK   13  A    between atoms: _32  and  _33
REMARK   14  A    between atoms: _33  and  _34
REMARK   15  A    between atoms: _34  and  _35
REMARK   16  A    between atoms: _44  and  _46
REMARK   17  A    between atoms: _46  and  _47
REMARK   18  A    between atoms: _46  and  _49
REMARK   19  A    between atoms: _49  and  _50
REMARK   20  A    between atoms: _50  and  _51
REMARK   21  A    between atoms: _56  and  _58
REMARK   22  A    between atoms: _58  and  _59
REMARK   23  A    between atoms: _58  and  _61
REMARK   24  A    between atoms: _61  and  _62
REMARK   25  A    between atoms: _65  and  _67
REMARK   26  A    between atoms: _67  and  _68
REMARK   27  A    between atoms: _67  and  _70
REMARK   28  A    between atoms: _70  and  _71
REMARK   29  A    between atoms: _81  and  _83
REMARK   30  A    between atoms: _83  and  _84
REMARK   31  A    between atoms: _83  and  _86
REMARK   32  A    between atoms: _89  and  _91
REMARK   33  A    between atoms: _91  and  _92
REMARK   34  A    between atoms: _91  and  _94
REMARK   35  A    between atoms: _94  and  _95
REMARK   36  A    between atoms: _98  and  _100
REMARK   37  A    between atoms: _100  and  _101
REMARK   38  A    between atoms: _100  and  _103
REMARK   39  A    between atoms: _103  and  _104
REMARK   40  A    between atoms: _106  and  _108
REMARK   41  A    between atoms: _108  and  _109
REMARK   42  A    between atoms: _108  and  _111
REMARK   43  A    between atoms: _111  and  _112
REMARK   44  A    between atoms: _116  and  _117
REMARK   45  A    between atoms: _123  and  _124
REMARK   46  A    between atoms: _130  and  _131
REMARK   47  A    between atoms: _136  and  _138
REMARK   48  A    between atoms: _138  and  _139
REMARK   49  A    between atoms: _141  and  _143
REMARK   50  A    between atoms: _143  and  _144
REMARK   51  A    between atoms: _143  and  _146
REMARK   52  A    between atoms: _146  and  _147
REMARK   53  A    between atoms: _150  and  _152
REMARK   54  A    between atoms: _152  and  _153
REMARK   55  A    between atoms: _152  and  _155
REMARK   56  A    between atoms: _155  and  _156
REMARK   57  A    between atoms: _156  and  _157
REMARK   58  A    between atoms: _157  and  _158
REMARK   59  A    between atoms: _167  and  _169
REMARK   60  A    between atoms: _169  and  _170
REMARK   61  A    between atoms: _169  and  _172
REMARK   62  A    between atoms: _175  and  _177
REMARK   63  A    between atoms: _177  and  _178
REMARK   64  A    between atoms: _177  and  _180
REMARK   65  A    between atoms: _180  and  _181
REMARK   66  A    between atoms: _181  and  _182
REMARK   67  A    between atoms: _182  and  _183
REMARK   68  A    between atoms: _193  and  _194
REMARK   69  A    between atoms: _199  and  _201
REMARK   70  A    between atoms: _201  and  _202
REMARK   71  A    between atoms: _201  and  _204
REMARK   72  A    between atoms: _206  and  _208
REMARK   73  A    between atoms: _208  and  _209
REMARK   74  A    between atoms: _208  and  _211
REMARK   75  A    between atoms: _211  and  _212
REMARK   76  A    between atoms: _212  and  _213
REMARK   77  A    between atoms: _217  and  _218
REMARK   78  A    between atoms: _224  and  _225
REMARK   79  A    between atoms: _230  and  _232
REMARK   80  A    between atoms: _232  and  _233
REMARK   81  A    between atoms: _232  and  _235
REMARK   82  A    between atoms: _235  and  _236
REMARK   83  A    between atoms: _236  and  _237
REMARK   84  A    between atoms: _240  and  _242
REMARK   85  A    between atoms: _242  and  _243
REMARK   86  A    between atoms: _242  and  _245
REMARK   87  A    between atoms: _245  and  _246
REMARK   88  A    between atoms: _248  and  _250
REMARK   89  A    between atoms: _250  and  _251
REMARK   90  A    between atoms: _250  and  _253
REMARK   91  A    between atoms: _253  and  _254
REMARK   92  A    between atoms: _257  and  _259
REMARK   93  A    between atoms: _259  and  _260
REMARK   94  A    between atoms: _259  and  _262
REMARK   95  A    between atoms: _264  and  _266
REMARK   96  A    between atoms: _266  and  _267
REMARK   97  A    between atoms: _266  and  _269
REMARK   98  A    between atoms: _269  and  _270
REMARK   99  A    between atoms: _273  and  _275
REMARK  100  A    between atoms: _275  and  _276
REMARK  101  A    between atoms: _275  and  _278
REMARK  102  A    between atoms: _278  and  _279
REMARK  103  A    between atoms: _282  and  _284
REMARK  104  A    between atoms: _284  and  _285
REMARK  105  A    between atoms: _284  and  _287
REMARK  106  A    between atoms: _287  and  _288
REMARK                            x       y       z     vdW  Elec       q    Type
REMARK                         _______ _______ _______ _____ _____    ______ ____
ROOT
ATOM      1  O   HOH     1      85.398  90.528 -40.722  0.00  0.00    +0.000 OA
ENDROOT
TORSDOF 0
REMARK  Name = ../refined-set-2016/4agq/4agq_pocket.pdb
REMARK  106 active torsions:
REMARK  status: ('A' for Active; 'I' for Inactive)
REMARK    1  A    between atoms: _1  and  _3
REMARK    2  A    between atoms: _3  and  _4
REMARK    3  A    between atoms: _3  and  _6
REMARK    4  A    between atoms: _6  and  _7
REMARK    5  A    between atoms: _12  and  _13
REMARK    6  A    between atoms: _15  and  _17
REMARK    7  A    between atoms: _17  and  _18
REMARK    8  A    between atoms: _17  and  _20
REMARK    9  A    between atoms: _20  and  _21
REMARK   10  A    between atoms: _27  and  _29
REMARK   11  A    between atoms: _29  and  _30
REMARK   12  A    between atoms: _29  and  _32
REMARK   13  A    between atoms: _32  and  _33
REMARK   14  A    between atoms: _33  and  _34
REMARK   15  A    between atoms: _34  and  _35
REMARK   16  A    between atoms: _44  and  _46
REMARK   17  A    between atoms: _46  and  _47
REMARK   18  A    between atoms: _46  and  _49
REMARK   19  A    between atoms: _49  and  _50
REMARK   20  A    between atoms: _50  and  _51
REMARK   21  A    between atoms: _56  and  _58
REMARK   22  A    between atoms: _58  and  _59
REMARK   23  A    between atoms: _58  and  _61
REMARK   24  A    between atoms: _61  and  _62
REMARK   25  A    between atoms: _65  and  _67
REMARK   26  A    between atoms: _67  and  _68
REMARK   27  A    between atoms: _67  and  _70
REMARK   28  A    between atoms: _70  and  _71
REMARK   29  A    between atoms: _81  and  _83
REMARK   30  A    between atoms: _83  and  _84
REMARK   31  A    between atoms: _83  and  _86
REMARK   32  A    between atoms: _89  and  _91
REMARK   33  A    between atoms: _91  and  _92
REMARK   34  A    between atoms: _91  and  _94
REMARK   35  A    between atoms: _94  and  _95
REMARK   36  A    between atoms: _98  and  _100
REMARK   37  A    between atoms: _100  and  _101
REMARK   38  A    between atoms: _100  and  _103
REMARK   39  A    between atoms: _103  and  _104
REMARK   40  A    between atoms: _106  and  _108
REMARK   41  A    between atoms: _108  and  _109
REMARK   42  A    between atoms: _108  and  _111
REMARK   43  A    between atoms: _111  and  _112
REMARK   44  A    between atoms: _116  and  _117
REMARK   45  A    between atoms: _123  and  _124
REMARK   46  A    between atoms: _130  and  _131
REMARK   47  A    between atoms: _136  and  _138
REMARK   48  A    between atoms: _138  and  _139
REMARK   49  A    between atoms: _141  and  _143
REMARK   50  A    between atoms: _143  and  _144
REMARK   51  A    between atoms: _143  and  _146
REMARK   52  A    between atoms: _146  and  _147
REMARK   53  A    between atoms: _150  and  _152
REMARK   54  A    between atoms: _152  and  _153
REMARK   55  A    between atoms: _152  and  _155
REMARK   56  A    between atoms: _155  and  _156
REMARK   57  A    between atoms: _156  and  _157
REMARK   58  A    between atoms: _157  and  _158
REMARK   59  A    between atoms: _167  and  _169
REMARK   60  A    between atoms: _169  and  _170
REMARK   61  A    between atoms: _169  and  _172
REMARK   62  A    between atoms: _175  and  _177
REMARK   63  A    between atoms: _177  and  _178
REMARK   64  A    between atoms: _177  and  _180
REMARK   65  A    between atoms: _180  and  _181
REMARK   66  A    between atoms: _181  and  _182
REMARK   67  A    between atoms: _182  and  _183
REMARK   68  A    between atoms: _193  and  _194
REMARK   69  A    between atoms: _199  and  _201
REMARK   70  A    between atoms: _201  and  _202
REMARK   71  A    between atoms: _201  and  _204
REMARK   72  A    between atoms: _206  and  _208
REMARK   73  A    between atoms: _208  and  _209
REMARK   74  A    between atoms: _208  and  _211
REMARK   75  A    between atoms: _211  and  _212
REMARK   76  A    between atoms: _212  and  _213
REMARK   77  A    between atoms: _217  and  _218
REMARK   78  A    between atoms: _224  and  _225
REMARK   79  A    between atoms: _230  and  _232
REMARK   80  A    between atoms: _232  and  _233
REMARK   81  A    between atoms: _232  and  _235
REMARK   82  A    between atoms: _235  and  _236
REMARK   83  A    between atoms: _236  and  _237
REMARK   84  A    between atoms: _240  and  _242
REMARK   85  A    between atoms: _242  and  _243
REMARK   86  A    between atoms: _242  and  _245
REMARK   87  A    between atoms: _245  and  _246
REMARK   88  A    between atoms: _248  and  _250
REMARK   89  A    between atoms: _250  and  _251
REMARK   90  A    between atoms: _250  and  _253
REMARK   91  A    between atoms: _253  and  _254
REMARK   92  A    between atoms: _257  and  _259
REMARK   93  A    between atoms: _259  and  _260
REMARK   94  A    between atoms: _259  and  _262
REMARK   95  A    between atoms: _264  and  _266
REMARK   96  A    between atoms: _266  and  _267
REMARK   97  A    between atoms: _266  and  _269
REMARK   98  A    between atoms: _269  and  _270
REMARK   99  A    between atoms: _273  and  _275
REMARK  100  A    between atoms: _275  and  _276
REMARK  101  A    between atoms: _275  and  _278
REMARK  102  A    between atoms: _278  and  _279
REMARK  103  A    between atoms: _282  and  _284
REMARK  104  A    between atoms: _284  and  _285
REMARK  105  A    between atoms: _284  and  _287
REMARK  106  A    between atoms: _287  and  _288
REMARK                            x       y       z     vdW  Elec       q    Type
REMARK                         _______ _______ _______ _____ _____    ______ ____
ROOT
ATOM      1  O   HOH     1      84.116  96.837 -44.332  0.00  0.00    +0.000 OA
ENDROOT
TORSDOF 0
REMARK  Name = ../refined-set-2016/4agq/4agq_pocket.pdb
REMARK  106 active torsions:
REMARK  status: ('A' for Active; 'I' for Inactive)
REMARK    1  A    between atoms: _1  and  _3
REMARK    2  A    between atoms: _3  and  _4
REMARK    3  A    between atoms: _3  and  _6
REMARK    4  A    between atoms: _6  and  _7
REMARK    5  A    between atoms: _12  and  _13
REMARK    6  A    between atoms: _15  and  _17
REMARK    7  A    between atoms: _17  and  _18
REMARK    8  A    between atoms: _17  and  _20
REMARK    9  A    between atoms: _20  and  _21
REMARK   10  A    between atoms: _27  and  _29
REMARK   11  A    between atoms: _29  and  _30
REMARK   12  A    between atoms: _29  and  _32
REMARK   13  A    between atoms: _32  and  _33
REMARK   14  A    between atoms: _33  and  _34
REMARK   15  A    between atoms: _34  and  _35
REMARK   16  A    between atoms: _44  and  _46
REMARK   17  A    between atoms: _46  and  _47
REMARK   18  A    between atoms: _46  and  _49
REMARK   19  A    between atoms: _49  and  _50
REMARK   20  A    between atoms: _50  and  _51
REMARK   21  A    between atoms: _56  and  _58
REMARK   22  A    between atoms: _58  and  _59
REMARK   23  A    between atoms: _58  and  _61
REMARK   24  A    between atoms: _61  and  _62
REMARK   25  A    between atoms: _65  and  _67
REMARK   26  A    between atoms: _67  and  _68
REMARK   27  A    between atoms: _67  and  _70
REMARK   28  A    between atoms: _70  and  _71
REMARK   29  A    between atoms: _81  and  _83
REMARK   30  A    between atoms: _83  and  _84
REMARK   31  A    between atoms: _83  and  _86
REMARK   32  A    between atoms: _89  and  _91
REMARK   33  A    between atoms: _91  and  _92
REMARK   34  A    between atoms: _91  and  _94
REMARK   35  A    between atoms: _94  and  _95
REMARK   36  A    between atoms: _98  and  _100
REMARK   37  A    between atoms: _100  and  _101
REMARK   38  A    between atoms: _100  and  _103
REMARK   39  A    between atoms: _103  and  _104
REMARK   40  A    between atoms: _106  and  _108
REMARK   41  A    between atoms: _108  and  _109
REMARK   42  A    between atoms: _108  and  _111
REMARK   43  A    between atoms: _111  and  _112
REMARK   44  A    between atoms: _116  and  _117
REMARK   45  A    between atoms: _123  and  _124
REMARK   46  A    between atoms: _130  and  _131
REMARK   47  A    between atoms: _136  and  _138
REMARK   48  A    between atoms: _138  and  _139
REMARK   49  A    between atoms: _141  and  _143
REMARK   50  A    between atoms: _143  and  _144
REMARK   51  A    between atoms: _143  and  _146
REMARK   52  A    between atoms: _146  and  _147
REMARK   53  A    between atoms: _150  and  _152
REMARK   54  A    between atoms: _152  and  _153
REMARK   55  A    between atoms: _152  and  _155
REMARK   56  A    between atoms: _155  and  _156
REMARK   57  A    between atoms: _156  and  _157
REMARK   58  A    between atoms: _157  and  _158
REMARK   59  A    between atoms: _167  and  _169
REMARK   60  A    between atoms: _169  and  _170
REMARK   61  A    between atoms: _169  and  _172
REMARK   62  A    between atoms: _175  and  _177
REMARK   63  A    between atoms: _177  and  _178
REMARK   64  A    between atoms: _177  and  _180
REMARK   65  A    between atoms: _180  and  _181
REMARK   66  A    between atoms: _181  and  _182
REMARK   67  A    between atoms: _182  and  _183
REMARK   68  A    between atoms: _193  and  _194
REMARK   69  A    between atoms: _199  and  _201
REMARK   70  A    between atoms: _201  and  _202
REMARK   71  A    between atoms: _201  and  _204
REMARK   72  A    between atoms: _206  and  _208
REMARK   73  A    between atoms: _208  and  _209
REMARK   74  A    between atoms: _208  and  _211
REMARK   75  A    between atoms: _211  and  _212
REMARK   76  A    between atoms: _212  and  _213
REMARK   77  A    between atoms: _217  and  _218
REMARK   78  A    between atoms: _224  and  _225
REMARK   79  A    between atoms: _230  and  _232
REMARK   80  A    between atoms: _232  and  _233
REMARK   81  A    between atoms: _232  and  _235
REMARK   82  A    between atoms: _235  and  _236
REMARK   83  A    between atoms: _236  and  _237
REMARK   84  A    between atoms: _240  and  _242
REMARK   85  A    between atoms: _242  and  _243
REMARK   86  A    between atoms: _242  and  _245
REMARK   87  A    between atoms: _245  and  _246
REMARK   88  A    between atoms: _248  and  _250
REMARK   89  A    between atoms: _250  and  _251
REMARK   90  A    between atoms: _250  and  _253
REMARK   91  A    between atoms: _253  and  _254
REMARK   92  A    between atoms: _257  and  _259
REMARK   93  A    between atoms: _259  and  _260
REMARK   94  A    between atoms: _259  and  _262
REMARK   95  A    between atoms: _264  and  _266
REMARK   96  A    between atoms: _266  and  _267
REMARK   97  A    between atoms: _266  and  _269
REMARK   98  A    between atoms: _269  and  _270
REMARK   99  A    between atoms: _273  and  _275
REMARK  100  A    between atoms: _275  and  _276
REMARK  101  A    between atoms: _275  and  _278
REMARK  102  A    between atoms: _278  and  _279
REMARK  103  A    between atoms: _282  and  _284
REMARK  104  A    between atoms: _284  and  _285
REMARK  105  A    between atoms: _284  and  _287
REMARK  106  A    between atoms: _287  and  _288
REMARK                            x       y       z     vdW  Elec       q    Type
REMARK                         _______ _______ _______ _____ _____    ______ ____
ROOT
ATOM      1  O   HOH     1      84.837  93.593 -38.120  0.00  0.00    +0.000 OA
ENDROOT
TORSDOF 0
REMARK  Name = ../refined-set-2016/4agq/4agq_pocket.pdb
REMARK  106 active torsions:
REMARK  status: ('A' for Active; 'I' for Inactive)
REMARK    1  A    between atoms: _1  and  _3
REMARK    2  A    between atoms: _3  and  _4
REMARK    3  A    between atoms: _3  and  _6
REMARK    4  A    between atoms: _6  and  _7
REMARK    5  A    between atoms: _12  and  _13
REMARK    6  A    between atoms: _15  and  _17
REMARK    7  A    between atoms: _17  and  _18
REMARK    8  A    between atoms: _17  and  _20
REMARK    9  A    between atoms: _20  and  _21
REMARK   10  A    between atoms: _27  and  _29
REMARK   11  A    between atoms: _29  and  _30
REMARK   12  A    between atoms: _29  and  _32
REMARK   13  A    between atoms: _32  and  _33
REMARK   14  A    between atoms: _33  and  _34
REMARK   15  A    between atoms: _34  and  _35
REMARK   16  A    between atoms: _44  and  _46
REMARK   17  A    between atoms: _46  and  _47
REMARK   18  A    between atoms: _46  and  _49
REMARK   19  A    between atoms: _49  and  _50
REMARK   20  A    between atoms: _50  and  _51
REMARK   21  A    between atoms: _56  and  _58
REMARK   22  A    between atoms: _58  and  _59
REMARK   23  A    between atoms: _58  and  _61
REMARK   24  A    between atoms: _61  and  _62
REMARK   25  A    between atoms: _65  and  _67
REMARK   26  A    between atoms: _67  and  _68
REMARK   27  A    between atoms: _67  and  _70
REMARK   28  A    between atoms: _70  and  _71
REMARK   29  A    between atoms: _81  and  _83
REMARK   30  A    between atoms: _83  and  _84
REMARK   31  A    between atoms: _83  and  _86
REMARK   32  A    between atoms: _89  and  _91
REMARK   33  A    between atoms: _91  and  _92
REMARK   34  A    between atoms: _91  and  _94
REMARK   35  A    between atoms: _94  and  _95
REMARK   36  A    between atoms: _98  and  _100
REMARK   37  A    between atoms: _100  and  _101
REMARK   38  A    between atoms: _100  and  _103
REMARK   39  A    between atoms: _103  and  _104
REMARK   40  A    between atoms: _106  and  _108
REMARK   41  A    between atoms: _108  and  _109
REMARK   42  A    between atoms: _108  and  _111
REMARK   43  A    between atoms: _111  and  _112
REMARK   44  A    between atoms: _116  and  _117
REMARK   45  A    between atoms: _123  and  _124
REMARK   46  A    between atoms: _130  and  _131
REMARK   47  A    between atoms: _136  and  _138
REMARK   48  A    between atoms: _138  and  _139
REMARK   49  A    between atoms: _141  and  _143
REMARK   50  A    between atoms: _143  and  _144
REMARK   51  A    between atoms: _143  and  _146
REMARK   52  A    between atoms: _146  and  _147
REMARK   53  A    between atoms: _150  and  _152
REMARK   54  A    between atoms: _152  and  _153
REMARK   55  A    between atoms: _152  and  _155
REMARK   56  A    between atoms: _155  and  _156
REMARK   57  A    between atoms: _156  and  _157
REMARK   58  A    between atoms: _157  and  _158
REMARK   59  A    between atoms: _167  and  _169
REMARK   60  A    between atoms: _169  and  _170
REMARK   61  A    between atoms: _169  and  _172
REMARK   62  A    between atoms: _175  and  _177
REMARK   63  A    between atoms: _177  and  _178
REMARK   64  A    between atoms: _177  and  _180
REMARK   65  A    between atoms: _180  and  _181
REMARK   66  A    between atoms: _181  and  _182
REMARK   67  A    between atoms: _182  and  _183
REMARK   68  A    between atoms: _193  and  _194
REMARK   69  A    between atoms: _199  and  _201
REMARK   70  A    between atoms: _201  and  _202
REMARK   71  A    between atoms: _201  and  _204
REMARK   72  A    between atoms: _206  and  _208
REMARK   73  A    between atoms: _208  and  _209
REMARK   74  A    between atoms: _208  and  _211
REMARK   75  A    between atoms: _211  and  _212
REMARK   76  A    between atoms: _212  and  _213
REMARK   77  A    between atoms: _217  and  _218
REMARK   78  A    between atoms: _224  and  _225
REMARK   79  A    between atoms: _230  and  _232
REMARK   80  A    between atoms: _232  and  _233
REMARK   81  A    between atoms: _232  and  _235
REMARK   82  A    between atoms: _235  and  _236
REMARK   83  A    between atoms: _236  and  _237
REMARK   84  A    between atoms: _240  and  _242
REMARK   85  A    between atoms: _242  and  _243
REMARK   86  A    between atoms: _242  and  _245
REMARK   87  A    between atoms: _245  and  _246
REMARK   88  A    between atoms: _248  and  _250
REMARK   89  A    between atoms: _250  and  _251
REMARK   90  A    between atoms: _250  and  _253
REMARK   91  A    between atoms: _253  and  _254
REMARK   92  A    between atoms: _257  and  _259
REMARK   93  A    between atoms: _259  and  _260
REMARK   94  A    between atoms: _259  and  _262
REMARK   95  A    between atoms: _264  and  _266
REMARK   96  A    between atoms: _266  and  _267
REMARK   97  A    between atoms: _266  and  _269
REMARK   98  A    between atoms: _269  and  _270
REMARK   99  A    between atoms: _273  and  _275
REMARK  100  A    between atoms: _275  and  _276
REMARK  101  A    between atoms: _275  and  _278
REMARK  102  A    between atoms: _278  and  _279
REMARK  103  A    between atoms: _282  and  _284
REMARK  104  A    between atoms: _284  and  _285
REMARK  105  A    between atoms: _284  and  _287
REMARK  106  A    between atoms: _287  and  _288
REMARK                            x       y       z     vdW  Elec       q    Type
REMARK                         _______ _______ _______ _____ _____    ______ ____
ROOT
ATOM      1  O   HOH     1      83.951  98.982 -42.479  0.00  0.00    +0.000 OA
ENDROOT
TORSDOF 0
REMARK  Name = ../refined-set-2016/4agq/4agq_pocket.pdb
REMARK  106 active torsions:
REMARK  status: ('A' for Active; 'I' for Inactive)
REMARK    1  A    between atoms: _1  and  _3
REMARK    2  A    between atoms: _3  and  _4
REMARK    3  A    between atoms: _3  and  _6
REMARK    4  A    between atoms: _6  and  _7
REMARK    5  A    between atoms: _12  and  _13
REMARK    6  A    between atoms: _15  and  _17
REMARK    7  A    between atoms: _17  and  _18
REMARK    8  A    between atoms: _17  and  _20
REMARK    9  A    between atoms: _20  and  _21
REMARK   10  A    between atoms: _27  and  _29
REMARK   11  A    between atoms: _29  and  _30
REMARK   12  A    between atoms: _29  and  _32
REMARK   13  A    between atoms: _32  and  _33
REMARK   14  A    between atoms: _33  and  _34
REMARK   15  A    between atoms: _34  and  _35
REMARK   16  A    between atoms: _44  and  _46
REMARK   17  A    between atoms: _46  and  _47
REMARK   18  A    between atoms: _46  and  _49
REMARK   19  A    between atoms: _49  and  _50
REMARK   20  A    between atoms: _50  and  _51
REMARK   21  A    between atoms: _56  and  _58
REMARK   22  A    between atoms: _58  and  _59
REMARK   23  A    between atoms: _58  and  _61
REMARK   24  A    between atoms: _61  and  _62
REMARK   25  A    between atoms: _65  and  _67
REMARK   26  A    between atoms: _67  and  _68
REMARK   27  A    between atoms: _67  and  _70
REMARK   28  A    between atoms: _70  and  _71
REMARK   29  A    between atoms: _81  and  _83
REMARK   30  A    between atoms: _83  and  _84
REMARK   31  A    between atoms: _83  and  _86
REMARK   32  A    between atoms: _89  and  _91
REMARK   33  A    between atoms: _91  and  _92
REMARK   34  A    between atoms: _91  and  _94
REMARK   35  A    between atoms: _94  and  _95
REMARK   36  A    between atoms: _98  and  _100
REMARK   37  A    between atoms: _100  and  _101
REMARK   38  A    between atoms: _100  and  _103
REMARK   39  A    between atoms: _103  and  _104
REMARK   40  A    between atoms: _106  and  _108
REMARK   41  A    between atoms: _108  and  _109
REMARK   42  A    between atoms: _108  and  _111
REMARK   43  A    between atoms: _111  and  _112
REMARK   44  A    between atoms: _116  and  _117
REMARK   45  A    between atoms: _123  and  _124
REMARK   46  A    between atoms: _130  and  _131
REMARK   47  A    between atoms: _136  and  _138
REMARK   48  A    between atoms: _138  and  _139
REMARK   49  A    between atoms: _141  and  _143
REMARK   50  A    between atoms: _143  and  _144
REMARK   51  A    between atoms: _143  and  _146
REMARK   52  A    between atoms: _146  and  _147
REMARK   53  A    between atoms: _150  and  _152
REMARK   54  A    between atoms: _152  and  _153
REMARK   55  A    between atoms: _152  and  _155
REMARK   56  A    between atoms: _155  and  _156
REMARK   57  A    between atoms: _156  and  _157
REMARK   58  A    between atoms: _157  and  _158
REMARK   59  A    between atoms: _167  and  _169
REMARK   60  A    between atoms: _169  and  _170
REMARK   61  A    between atoms: _169  and  _172
REMARK   62  A    between atoms: _175  and  _177
REMARK   63  A    between atoms: _177  and  _178
REMARK   64  A    between atoms: _177  and  _180
REMARK   65  A    between atoms: _180  and  _181
REMARK   66  A    between atoms: _181  and  _182
REMARK   67  A    between atoms: _182  and  _183
REMARK   68  A    between atoms: _193  and  _194
REMARK   69  A    between atoms: _199  and  _201
REMARK   70  A    between atoms: _201  and  _202
REMARK   71  A    between atoms: _201  and  _204
REMARK   72  A    between atoms: _206  and  _208
REMARK   73  A    between atoms: _208  and  _209
REMARK   74  A    between atoms: _208  and  _211
REMARK   75  A    between atoms: _211  and  _212
REMARK   76  A    between atoms: _212  and  _213
REMARK   77  A    between atoms: _217  and  _218
REMARK   78  A    between atoms: _224  and  _225
REMARK   79  A    between atoms: _230  and  _232
REMARK   80  A    between atoms: _232  and  _233
REMARK   81  A    between atoms: _232  and  _235
REMARK   82  A    between atoms: _235  and  _236
REMARK   83  A    between atoms: _236  and  _237
REMARK   84  A    between atoms: _240  and  _242
REMARK   85  A    between atoms: _242  and  _243
REMARK   86  A    between atoms: _242  and  _245
REMARK   87  A    between atoms: _245  and  _246
REMARK   88  A    between atoms: _248  and  _250
REMARK   89  A    between atoms: _250  and  _251
REMARK   90  A    between atoms: _250  and  _253
REMARK   91  A    between atoms: _253  and  _254
REMARK   92  A    between atoms: _257  and  _259
REMARK   93  A    between atoms: _259  and  _260
REMARK   94  A    between atoms: _259  and  _262
REMARK   95  A    between atoms: _264  and  _266
REMARK   96  A    between atoms: _266  and  _267
REMARK   97  A    between atoms: _266  and  _269
REMARK   98  A    between atoms: _269  and  _270
REMARK   99  A    between atoms: _273  and  _275
REMARK  100  A    between atoms: _275  and  _276
REMARK  101  A    between atoms: _275  and  _278
REMARK  102  A    between atoms: _278  and  _279
REMARK  103  A    between atoms: _282  and  _284
REMARK  104  A    between atoms: _284  and  _285
REMARK  105  A    between atoms: _284  and  _287
REMARK  106  A    between atoms: _287  and  _288
REMARK                            x       y       z     vdW  Elec       q    Type
REMARK                         _______ _______ _______ _____ _____    ______ ____
ROOT
ATOM      1  O   HOH     1      83.928 102.963 -39.945  0.00  0.00    +0.000 OA
ENDROOT
TORSDOF 0
REMARK  Name = ../refined-set-2016/4agq/4agq_pocket.pdb
REMARK  106 active torsions:
REMARK  status: ('A' for Active; 'I' for Inactive)
REMARK    1  A    between atoms: _1  and  _3
REMARK    2  A    between atoms: _3  and  _4
REMARK    3  A    between atoms: _3  and  _6
REMARK    4  A    between atoms: _6  and  _7
REMARK    5  A    between atoms: _12  and  _13
REMARK    6  A    between atoms: _15  and  _17
REMARK    7  A    between atoms: _17  and  _18
REMARK    8  A    between atoms: _17  and  _20
REMARK    9  A    between atoms: _20  and  _21
REMARK   10  A    between atoms: _27  and  _29
REMARK   11  A    between atoms: _29  and  _30
REMARK   12  A    between atoms: _29  and  _32
REMARK   13  A    between atoms: _32  and  _33
REMARK   14  A    between atoms: _33  and  _34
REMARK   15  A    between atoms: _34  and  _35
REMARK   16  A    between atoms: _44  and  _46
REMARK   17  A    between atoms: _46  and  _47
REMARK   18  A    between atoms: _46  and  _49
REMARK   19  A    between atoms: _49  and  _50
REMARK   20  A    between atoms: _50  and  _51
REMARK   21  A    between atoms: _56  and  _58
REMARK   22  A    between atoms: _58  and  _59
REMARK   23  A    between atoms: _58  and  _61
REMARK   24  A    between atoms: _61  and  _62
REMARK   25  A    between atoms: _65  and  _67
REMARK   26  A    between atoms: _67  and  _68
REMARK   27  A    between atoms: _67  and  _70
REMARK   28  A    between atoms: _70  and  _71
REMARK   29  A    between atoms: _81  and  _83
REMARK   30  A    between atoms: _83  and  _84
REMARK   31  A    between atoms: _83  and  _86
REMARK   32  A    between atoms: _89  and  _91
REMARK   33  A    between atoms: _91  and  _92
REMARK   34  A    between atoms: _91  and  _94
REMARK   35  A    between atoms: _94  and  _95
REMARK   36  A    between atoms: _98  and  _100
REMARK   37  A    between atoms: _100  and  _101
REMARK   38  A    between atoms: _100  and  _103
REMARK   39  A    between atoms: _103  and  _104
REMARK   40  A    between atoms: _106  and  _108
REMARK   41  A    between atoms: _108  and  _109
REMARK   42  A    between atoms: _108  and  _111
REMARK   43  A    between atoms: _111  and  _112
REMARK   44  A    between atoms: _116  and  _117
REMARK   45  A    between atoms: _123  and  _124
REMARK   46  A    between atoms: _130  and  _131
REMARK   47  A    between atoms: _136  and  _138
REMARK   48  A    between atoms: _138  and  _139
REMARK   49  A    between atoms: _141  and  _143
REMARK   50  A    between atoms: _143  and  _144
REMARK   51  A    between atoms: _143  and  _146
REMARK   52  A    between atoms: _146  and  _147
REMARK   53  A    between atoms: _150  and  _152
REMARK   54  A    between atoms: _152  and  _153
REMARK   55  A    between atoms: _152  and  _155
REMARK   56  A    between atoms: _155  and  _156
REMARK   57  A    between atoms: _156  and  _157
REMARK   58  A    between atoms: _157  and  _158
REMARK   59  A    between atoms: _167  and  _169
REMARK   60  A    between atoms: _169  and  _170
REMARK   61  A    between atoms: _169  and  _172
REMARK   62  A    between atoms: _175  and  _177
REMARK   63  A    between atoms: _177  and  _178
REMARK   64  A    between atoms: _177  and  _180
REMARK   65  A    between atoms: _180  and  _181
REMARK   66  A    between atoms: _181  and  _182
REMARK   67  A    between atoms: _182  and  _183
REMARK   68  A    between atoms: _193  and  _194
REMARK   69  A    between atoms: _199  and  _201
REMARK   70  A    between atoms: _201  and  _202
REMARK   71  A    between atoms: _201  and  _204
REMARK   72  A    between atoms: _206  and  _208
REMARK   73  A    between atoms: _208  and  _209
REMARK   74  A    between atoms: _208  and  _211
REMARK   75  A    between atoms: _211  and  _212
REMARK   76  A    between atoms: _212  and  _213
REMARK   77  A    between atoms: _217  and  _218
REMARK   78  A    between atoms: _224  and  _225
REMARK   79  A    between atoms: _230  and  _232
REMARK   80  A    between atoms: _232  and  _233
REMARK   81  A    between atoms: _232  and  _235
REMARK   82  A    between atoms: _235  and  _236
REMARK   83  A    between atoms: _236  and  _237
REMARK   84  A    between atoms: _240  and  _242
REMARK   85  A    between atoms: _242  and  _243
REMARK   86  A    between atoms: _242  and  _245
REMARK   87  A    between atoms: _245  and  _246
REMARK   88  A    between atoms: _248  and  _250
REMARK   89  A    between atoms: _250  and  _251
REMARK   90  A    between atoms: _250  and  _253
REMARK   91  A    between atoms: _253  and  _254
REMARK   92  A    between atoms: _257  and  _259
REMARK   93  A    between atoms: _259  and  _260
REMARK   94  A    between atoms: _259  and  _262
REMARK   95  A    between atoms: _264  and  _266
REMARK   96  A    between atoms: _266  and  _267
REMARK   97  A    between atoms: _266  and  _269
REMARK   98  A    between atoms: _269  and  _270
REMARK   99  A    between atoms: _273  and  _275
REMARK  100  A    between atoms: _275  and  _276
REMARK  101  A    between atoms: _275  and  _278
REMARK  102  A    between atoms: _278  and  _279
REMARK  103  A    between atoms: _282  and  _284
REMARK  104  A    between atoms: _284  and  _285
REMARK  105  A    between atoms: _284  and  _287
REMARK  106  A    between atoms: _287  and  _288
REMARK                            x       y       z     vdW  Elec       q    Type
REMARK                         _______ _______ _______ _____ _____    ______ ____
ROOT
ATOM      1  O   HOH     1      90.684 101.108 -40.499  0.00  0.00    +0.000 OA
ENDROOT
TORSDOF 0
REMARK  Name = ../refined-set-2016/4agq/4agq_pocket.pdb
REMARK  106 active torsions:
REMARK  status: ('A' for Active; 'I' for Inactive)
REMARK    1  A    between atoms: _1  and  _3
REMARK    2  A    between atoms: _3  and  _4
REMARK    3  A    between atoms: _3  and  _6
REMARK    4  A    between atoms: _6  and  _7
REMARK    5  A    between atoms: _12  and  _13
REMARK    6  A    between atoms: _15  and  _17
REMARK    7  A    between atoms: _17  and  _18
REMARK    8  A    between atoms: _17  and  _20
REMARK    9  A    between atoms: _20  and  _21
REMARK   10  A    between atoms: _27  and  _29
REMARK   11  A    between atoms: _29  and  _30
REMARK   12  A    between atoms: _29  and  _32
REMARK   13  A    between atoms: _32  and  _33
REMARK   14  A    between atoms: _33  and  _34
REMARK   15  A    between atoms: _34  and  _35
REMARK   16  A    between atoms: _44  and  _46
REMARK   17  A    between atoms: _46  and  _47
REMARK   18  A    between atoms: _46  and  _49
REMARK   19  A    between atoms: _49  and  _50
REMARK   20  A    between atoms: _50  and  _51
REMARK   21  A    between atoms: _56  and  _58
REMARK   22  A    between atoms: _58  and  _59
REMARK   23  A    between atoms: _58  and  _61
REMARK   24  A    between atoms: _61  and  _62
REMARK   25  A    between atoms: _65  and  _67
REMARK   26  A    between atoms: _67  and  _68
REMARK   27  A    between atoms: _67  and  _70
REMARK   28  A    between atoms: _70  and  _71
REMARK   29  A    between atoms: _81  and  _83
REMARK   30  A    between atoms: _83  and  _84
REMARK   31  A    between atoms: _83  and  _86
REMARK   32  A    between atoms: _89  and  _91
REMARK   33  A    between atoms: _91  and  _92
REMARK   34  A    between atoms: _91  and  _94
REMARK   35  A    between atoms: _94  and  _95
REMARK   36  A    between atoms: _98  and  _100
REMARK   37  A    between atoms: _100  and  _101
REMARK   38  A    between atoms: _100  and  _103
REMARK   39  A    between atoms: _103  and  _104
REMARK   40  A    between atoms: _106  and  _108
REMARK   41  A    between atoms: _108  and  _109
REMARK   42  A    between atoms: _108  and  _111
REMARK   43  A    between atoms: _111  and  _112
REMARK   44  A    between atoms: _116  and  _117
REMARK   45  A    between atoms: _123  and  _124
REMARK   46  A    between atoms: _130  and  _131
REMARK   47  A    between atoms: _136  and  _138
REMARK   48  A    between atoms: _138  and  _139
REMARK   49  A    between atoms: _141  and  _143
REMARK   50  A    between atoms: _143  and  _144
REMARK   51  A    between atoms: _143  and  _146
REMARK   52  A    between atoms: _146  and  _147
REMARK   53  A    between atoms: _150  and  _152
REMARK   54  A    between atoms: _152  and  _153
REMARK   55  A    between atoms: _152  and  _155
REMARK   56  A    between atoms: _155  and  _156
REMARK   57  A    between atoms: _156  and  _157
REMARK   58  A    between atoms: _157  and  _158
REMARK   59  A    between atoms: _167  and  _169
REMARK   60  A    between atoms: _169  and  _170
REMARK   61  A    between atoms: _169  and  _172
REMARK   62  A    between atoms: _175  and  _177
REMARK   63  A    between atoms: _177  and  _178
REMARK   64  A    between atoms: _177  and  _180
REMARK   65  A    between atoms: _180  and  _181
REMARK   66  A    between atoms: _181  and  _182
REMARK   67  A    between atoms: _182  and  _183
REMARK   68  A    between atoms: _193  and  _194
REMARK   69  A    between atoms: _199  and  _201
REMARK   70  A    between atoms: _201  and  _202
REMARK   71  A    between atoms: _201  and  _204
REMARK   72  A    between atoms: _206  and  _208
REMARK   73  A    between atoms: _208  and  _209
REMARK   74  A    between atoms: _208  and  _211
REMARK   75  A    between atoms: _211  and  _212
REMARK   76  A    between atoms: _212  and  _213
REMARK   77  A    between atoms: _217  and  _218
REMARK   78  A    between atoms: _224  and  _225
REMARK   79  A    between atoms: _230  and  _232
REMARK   80  A    between atoms: _232  and  _233
REMARK   81  A    between atoms: _232  and  _235
REMARK   82  A    between atoms: _235  and  _236
REMARK   83  A    between atoms: _236  and  _237
REMARK   84  A    between atoms: _240  and  _242
REMARK   85  A    between atoms: _242  and  _243
REMARK   86  A    between atoms: _242  and  _245
REMARK   87  A    between atoms: _245  and  _246
REMARK   88  A    between atoms: _248  and  _250
REMARK   89  A    between atoms: _250  and  _251
REMARK   90  A    between atoms: _250  and  _253
REMARK   91  A    between atoms: _253  and  _254
REMARK   92  A    between atoms: _257  and  _259
REMARK   93  A    between atoms: _259  and  _260
REMARK   94  A    between atoms: _259  and  _262
REMARK   95  A    between atoms: _264  and  _266
REMARK   96  A    between atoms: _266  and  _267
REMARK   97  A    between atoms: _266  and  _269
REMARK   98  A    between atoms: _269  and  _270
REMARK   99  A    between atoms: _273  and  _275
REMARK  100  A    between atoms: _275  and  _276
REMARK  101  A    between atoms: _275  and  _278
REMARK  102  A    between atoms: _278  and  _279
REMARK  103  A    between atoms: _282  and  _284
REMARK  104  A    between atoms: _284  and  _285
REMARK  105  A    between atoms: _284  and  _287
REMARK  106  A    between atoms: _287  and  _288
REMARK                            x       y       z     vdW  Elec       q    Type
REMARK                         _______ _______ _______ _____ _____    ______ ____
ROOT
ATOM      1  O   HOH     1      88.344 102.134 -41.535  0.00  0.00    +0.000 OA
ENDROOT
TORSDOF 0
REMARK  Name = ../refined-set-2016/4agq/4agq_pocket.pdb
REMARK  106 active torsions:
REMARK  status: ('A' for Active; 'I' for Inactive)
REMARK    1  A    between atoms: _1  and  _3
REMARK    2  A    between atoms: _3  and  _4
REMARK    3  A    between atoms: _3  and  _6
REMARK    4  A    between atoms: _6  and  _7
REMARK    5  A    between atoms: _12  and  _13
REMARK    6  A    between atoms: _15  and  _17
REMARK    7  A    between atoms: _17  and  _18
REMARK    8  A    between atoms: _17  and  _20
REMARK    9  A    between atoms: _20  and  _21
REMARK   10  A    between atoms: _27  and  _29
REMARK   11  A    between atoms: _29  and  _30
REMARK   12  A    between atoms: _29  and  _32
REMARK   13  A    between atoms: _32  and  _33
REMARK   14  A    between atoms: _33  and  _34
REMARK   15  A    between atoms: _34  and  _35
REMARK   16  A    between atoms: _44  and  _46
REMARK   17  A    between atoms: _46  and  _47
REMARK   18  A    between atoms: _46  and  _49
REMARK   19  A    between atoms: _49  and  _50
REMARK   20  A    between atoms: _50  and  _51
REMARK   21  A    between atoms: _56  and  _58
REMARK   22  A    between atoms: _58  and  _59
REMARK   23  A    between atoms: _58  and  _61
REMARK   24  A    between atoms: _61  and  _62
REMARK   25  A    between atoms: _65  and  _67
REMARK   26  A    between atoms: _67  and  _68
REMARK   27  A    between atoms: _67  and  _70
REMARK   28  A    between atoms: _70  and  _71
REMARK   29  A    between atoms: _81  and  _83
REMARK   30  A    between atoms: _83  and  _84
REMARK   31  A    between atoms: _83  and  _86
REMARK   32  A    between atoms: _89  and  _91
REMARK   33  A    between atoms: _91  and  _92
REMARK   34  A    between atoms: _91  and  _94
REMARK   35  A    between atoms: _94  and  _95
REMARK   36  A    between atoms: _98  and  _100
REMARK   37  A    between atoms: _100  and  _101
REMARK   38  A    between atoms: _100  and  _103
REMARK   39  A    between atoms: _103  and  _104
REMARK   40  A    between atoms: _106  and  _108
REMARK   41  A    between atoms: _108  and  _109
REMARK   42  A    between atoms: _108  and  _111
REMARK   43  A    between atoms: _111  and  _112
REMARK   44  A    between atoms: _116  and  _117
REMARK   45  A    between atoms: _123  and  _124
REMARK   46  A    between atoms: _130  and  _131
REMARK   47  A    between atoms: _136  and  _138
REMARK   48  A    between atoms: _138  and  _139
REMARK   49  A    between atoms: _141  and  _143
REMARK   50  A    between atoms: _143  and  _144
REMARK   51  A    between atoms: _143  and  _146
REMARK   52  A    between atoms: _146  and  _147
REMARK   53  A    between atoms: _150  and  _152
REMARK   54  A    between atoms: _152  and  _153
REMARK   55  A    between atoms: _152  and  _155
REMARK   56  A    between atoms: _155  and  _156
REMARK   57  A    between atoms: _156  and  _157
REMARK   58  A    between atoms: _157  and  _158
REMARK   59  A    between atoms: _167  and  _169
REMARK   60  A    between atoms: _169  and  _170
REMARK   61  A    between atoms: _169  and  _172
REMARK   62  A    between atoms: _175  and  _177
REMARK   63  A    between atoms: _177  and  _178
REMARK   64  A    between atoms: _177  and  _180
REMARK   65  A    between atoms: _180  and  _181
REMARK   66  A    between atoms: _181  and  _182
REMARK   67  A    between atoms: _182  and  _183
REMARK   68  A    between atoms: _193  and  _194
REMARK   69  A    between atoms: _199  and  _201
REMARK   70  A    between atoms: _201  and  _202
REMARK   71  A    between atoms: _201  and  _204
REMARK   72  A    between atoms: _206  and  _208
REMARK   73  A    between atoms: _208  and  _209
REMARK   74  A    between atoms: _208  and  _211
REMARK   75  A    between atoms: _211  and  _212
REMARK   76  A    between atoms: _212  and  _213
REMARK   77  A    between atoms: _217  and  _218
REMARK   78  A    between atoms: _224  and  _225
REMARK   79  A    between atoms: _230  and  _232
REMARK   80  A    between atoms: _232  and  _233
REMARK   81  A    between atoms: _232  and  _235
REMARK   82  A    between atoms: _235  and  _236
REMARK   83  A    between atoms: _236  and  _237
REMARK   84  A    between atoms: _240  and  _242
REMARK   85  A    between atoms: _242  and  _243
REMARK   86  A    between atoms: _242  and  _245
REMARK   87  A    between atoms: _245  and  _246
REMARK   88  A    between atoms: _248  and  _250
REMARK   89  A    between atoms: _250  and  _251
REMARK   90  A    between atoms: _250  and  _253
REMARK   91  A    between atoms: _253  and  _254
REMARK   92  A    between atoms: _257  and  _259
REMARK   93  A    between atoms: _259  and  _260
REMARK   94  A    between atoms: _259  and  _262
REMARK   95  A    between atoms: _264  and  _266
REMARK   96  A    between atoms: _266  and  _267
REMARK   97  A    between atoms: _266  and  _269
REMARK   98  A    between atoms: _269  and  _270
REMARK   99  A    between atoms: _273  and  _275
REMARK  100  A    between atoms: _275  and  _276
REMARK  101  A    between atoms: _275  and  _278
REMARK  102  A    between atoms: _278  and  _279
REMARK  103  A    between atoms: _282  and  _284
REMARK  104  A    between atoms: _284  and  _285
REMARK  105  A    between atoms: _284  and  _287
REMARK  106  A    between atoms: _287  and  _288
REMARK                            x       y       z     vdW  Elec       q    Type
REMARK                         _______ _______ _______ _____ _____    ______ ____
ROOT
ATOM      1  O   HOH     1      85.817  90.970 -37.875  0.00  0.00    +0.000 OA
ENDROOT
TORSDOF 0
