REMARK  Name = ../refined-set-2016/4ghi/4ghi_pocket.pdb
REMARK  250 active torsions:
REMARK  status: ('A' for Active; 'I' for Inactive)
REMARK    1  A    between atoms: _1  and  _3
REMARK    2  A    between atoms: _3  and  _4
REMARK    3  A    between atoms: _3  and  _6
REMARK    4  A    between atoms: _6  and  _7
REMARK    5  A    between atoms: _13  and  _15
REMARK    6  A    between atoms: _15  and  _16
REMARK    7  A    between atoms: _15  and  _18
REMARK    8  A    between atoms: _18  and  _19
REMARK    9  A    between atoms: _22  and  _24
REMARK   10  A    between atoms: _24  and  _25
REMARK   11  A    between atoms: _24  and  _27
REMARK   12  A    between atoms: _27  and  _28
REMARK   13  A    between atoms: _30  and  _32
REMARK   14  A    between atoms: _32  and  _33
REMARK   15  A    between atoms: _32  and  _35
REMARK   16  A    between atoms: _35  and  _36
REMARK   17  A    between atoms: _36  and  _37
REMARK   18  A    between atoms: _40  and  _42
REMARK   19  A    between atoms: _42  and  _43
REMARK   20  A    between atoms: _42  and  _45
REMARK   21  A    between atoms: _45  and  _46
REMARK   22  A    between atoms: _51  and  _53
REMARK   23  A    between atoms: _53  and  _54
REMARK   24  A    between atoms: _53  and  _56
REMARK   25  A    between atoms: _56  and  _57
REMARK   26  A    between atoms: _59  and  _61
REMARK   27  A    between atoms: _61  and  _62
REMARK   28  A    between atoms: _61  and  _64
REMARK   29  A    between atoms: _64  and  _65
REMARK   30  A    between atoms: _65  and  _66
REMARK   31  A    between atoms: _68  and  _70
REMARK   32  A    between atoms: _70  and  _71
REMARK   33  A    between atoms: _70  and  _73
REMARK   34  A    between atoms: _73  and  _74
REMARK   35  A    between atoms: _77  and  _79
REMARK   36  A    between atoms: _79  and  _80
REMARK   37  A    between atoms: _79  and  _82
REMARK   38  A    between atoms: _82  and  _83
REMARK   39  A    between atoms: _83  and  _84
REMARK   40  A    between atoms: _86  and  _88
REMARK   41  A    between atoms: _88  and  _89
REMARK   42  A    between atoms: _88  and  _91
REMARK   43  A    between atoms: _91  and  _92
REMARK   44  A    between atoms: _92  and  _93
REMARK   45  A    between atoms: _93  and  _94
REMARK   46  A    between atoms: _94  and  _95
REMARK   47  A    between atoms: _99  and  _101
REMARK   48  A    between atoms: _101  and  _102
REMARK   49  A    between atoms: _101  and  _104
REMARK   50  A    between atoms: _104  and  _105
REMARK   51  A    between atoms: _111  and  _113
REMARK   52  A    between atoms: _113  and  _114
REMARK   53  A    between atoms: _113  and  _116
REMARK   54  A    between atoms: _116  and  _117
REMARK   55  A    between atoms: _120  and  _122
REMARK   56  A    between atoms: _122  and  _123
REMARK   57  A    between atoms: _122  and  _125
REMARK   58  A    between atoms: _125  and  _126
REMARK   59  A    between atoms: _131  and  _132
REMARK   60  A    between atoms: _134  and  _136
REMARK   61  A    between atoms: _136  and  _137
REMARK   62  A    between atoms: _136  and  _139
REMARK   63  A    between atoms: _141  and  _143
REMARK   64  A    between atoms: _143  and  _144
REMARK   65  A    between atoms: _143  and  _146
REMARK   66  A    between atoms: _146  and  _147
REMARK   67  A    between atoms: _150  and  _152
REMARK   68  A    between atoms: _152  and  _153
REMARK   69  A    between atoms: _152  and  _155
REMARK   70  A    between atoms: _155  and  _156
REMARK   71  A    between atoms: _159  and  _161
REMARK   72  A    between atoms: _161  and  _162
REMARK   73  A    between atoms: _161  and  _164
REMARK   74  A    between atoms: _164  and  _165
REMARK   75  A    between atoms: _168  and  _170
REMARK   76  A    between atoms: _170  and  _171
REMARK   77  A    between atoms: _170  and  _173
REMARK   78  A    between atoms: _173  and  _174
REMARK   79  A    between atoms: _179  and  _180
REMARK   80  A    between atoms: _182  and  _184
REMARK   81  A    between atoms: _184  and  _185
REMARK   82  A    between atoms: _184  and  _187
REMARK   83  A    between atoms: _187  and  _188
REMARK   84  A    between atoms: _191  and  _193
REMARK   85  A    between atoms: _193  and  _194
REMARK   86  A    between atoms: _193  and  _196
REMARK   87  A    between atoms: _196  and  _197
REMARK   88  A    between atoms: _199  and  _201
REMARK   89  A    between atoms: _201  and  _202
REMARK   90  A    between atoms: _205  and  _207
REMARK   91  A    between atoms: _207  and  _208
REMARK   92  A    between atoms: _207  and  _210
REMARK   93  A    between atoms: _210  and  _211
REMARK   94  A    between atoms: _216  and  _217
REMARK   95  A    between atoms: _219  and  _221
REMARK   96  A    between atoms: _221  and  _222
REMARK   97  A    between atoms: _221  and  _224
REMARK   98  A    between atoms: _224  and  _225
REMARK   99  A    between atoms: _225  and  _226
REMARK  100  A    between atoms: _229  and  _231
REMARK  101  A    between atoms: _231  and  _232
REMARK  102  A    between atoms: _231  and  _234
REMARK  103  A    between atoms: _234  and  _235
REMARK  104  A    between atoms: _241  and  _243
REMARK  105  A    between atoms: _243  and  _244
REMARK  106  A    between atoms: _243  and  _246
REMARK  107  A    between atoms: _246  and  _247
REMARK  108  A    between atoms: _252  and  _253
REMARK  109  A    between atoms: _255  and  _257
REMARK  110  A    between atoms: _257  and  _258
REMARK  111  A    between atoms: _257  and  _260
REMARK  112  A    between atoms: _260  and  _261
REMARK  113  A    between atoms: _266  and  _268
REMARK  114  A    between atoms: _268  and  _269
REMARK  115  A    between atoms: _268  and  _271
REMARK  116  A    between atoms: _271  and  _272
REMARK  117  A    between atoms: _277  and  _279
REMARK  118  A    between atoms: _279  and  _280
REMARK  119  A    between atoms: _279  and  _282
REMARK  120  A    between atoms: _282  and  _283
REMARK  121  A    between atoms: _283  and  _284
REMARK  122  A    between atoms: _286  and  _288
REMARK  123  A    between atoms: _288  and  _289
REMARK  124  A    between atoms: _288  and  _291
REMARK  125  A    between atoms: _291  and  _292
REMARK  126  A    between atoms: _295  and  _297
REMARK  127  A    between atoms: _297  and  _298
REMARK  128  A    between atoms: _297  and  _300
REMARK  129  A    between atoms: _300  and  _301
REMARK  130  A    between atoms: _301  and  _302
REMARK  131  A    between atoms: _302  and  _303
REMARK  132  A    between atoms: _303  and  _304
REMARK  133  A    between atoms: _308  and  _310
REMARK  134  A    between atoms: _310  and  _311
REMARK  135  A    between atoms: _310  and  _313
REMARK  136  A    between atoms: _313  and  _314
REMARK  137  A    between atoms: _316  and  _318
REMARK  138  A    between atoms: _318  and  _319
REMARK  139  A    between atoms: _318  and  _321
REMARK  140  A    between atoms: _321  and  _322
REMARK  141  A    between atoms: _327  and  _329
REMARK  142  A    between atoms: _329  and  _330
REMARK  143  A    between atoms: _329  and  _332
REMARK  144  A    between atoms: _332  and  _333
REMARK  145  A    between atoms: _333  and  _334
REMARK  146  A    between atoms: _339  and  _341
REMARK  147  A    between atoms: _341  and  _342
REMARK  148  A    between atoms: _341  and  _344
REMARK  149  A    between atoms: _344  and  _345
REMARK  150  A    between atoms: _350  and  _352
REMARK  151  A    between atoms: _352  and  _353
REMARK  152  A    between atoms: _352  and  _355
REMARK  153  A    between atoms: _355  and  _356
REMARK  154  A    between atoms: _359  and  _361
REMARK  155  A    between atoms: _361  and  _362
REMARK  156  A    between atoms: _361  and  _364
REMARK  157  A    between atoms: _366  and  _368
REMARK  158  A    between atoms: _368  and  _369
REMARK  159  A    between atoms: _368  and  _371
REMARK  160  A    between atoms: _371  and  _372
REMARK  161  A    between atoms: _372  and  _373
REMARK  162  A    between atoms: _378  and  _380
REMARK  163  A    between atoms: _380  and  _381
REMARK  164  A    between atoms: _380  and  _383
REMARK  165  A    between atoms: _386  and  _388
REMARK  166  A    between atoms: _388  and  _389
REMARK  167  A    between atoms: _388  and  _391
REMARK  168  A    between atoms: _394  and  _396
REMARK  169  A    between atoms: _396  and  _397
REMARK  170  A    between atoms: _396  and  _399
REMARK  171  A    between atoms: _399  and  _400
REMARK  172  A    between atoms: _402  and  _404
REMARK  173  A    between atoms: _404  and  _405
REMARK  174  A    between atoms: _407  and  _409
REMARK  175  A    between atoms: _409  and  _410
REMARK  176  A    between atoms: _409  and  _412
REMARK  177  A    between atoms: _412  and  _413
REMARK  178  A    between atoms: _418  and  _419
REMARK  179  A    between atoms: _421  and  _423
REMARK  180  A    between atoms: _423  and  _424
REMARK  181  A    between atoms: _423  and  _426
REMARK  182  A    between atoms: _426  and  _427
REMARK  183  A    between atoms: _427  and  _428
REMARK  184  A    between atoms: _428  and  _429
REMARK  185  A    between atoms: _438  and  _440
REMARK  186  A    between atoms: _440  and  _441
REMARK  187  A    between atoms: _440  and  _443
REMARK  188  A    between atoms: _443  and  _444
REMARK  189  A    between atoms: _444  and  _445
REMARK  190  A    between atoms: _447  and  _449
REMARK  191  A    between atoms: _449  and  _450
REMARK  192  A    between atoms: _449  and  _452
REMARK  193  A    between atoms: _452  and  _453
REMARK  194  A    between atoms: _456  and  _458
REMARK  195  A    between atoms: _458  and  _459
REMARK  196  A    between atoms: _458  and  _461
REMARK  197  A    between atoms: _464  and  _466
REMARK  198  A    between atoms: _466  and  _467
REMARK  199  A    between atoms: _466  and  _469
REMARK  200  A    between atoms: _469  and  _470
REMARK  201  A    between atoms: _473  and  _475
REMARK  202  A    between atoms: _475  and  _476
REMARK  203  A    between atoms: _475  and  _478
REMARK  204  A    between atoms: _478  and  _479
REMARK  205  A    between atoms: _479  and  _480
REMARK  206  A    between atoms: _483  and  _485
REMARK  207  A    between atoms: _485  and  _486
REMARK  208  A    between atoms: _485  and  _488
REMARK  209  A    between atoms: _488  and  _489
REMARK  210  A    between atoms: _492  and  _494
REMARK  211  A    between atoms: _494  and  _495
REMARK  212  A    between atoms: _494  and  _497
REMARK  213  A    between atoms: _497  and  _498
REMARK  214  A    between atoms: _498  and  _499
REMARK  215  A    between atoms: _504  and  _506
REMARK  216  A    between atoms: _506  and  _507
REMARK  217  A    between atoms: _509  and  _511
REMARK  218  A    between atoms: _511  and  _512
REMARK  219  A    between atoms: _511  and  _514
REMARK  220  A    between atoms: _514  and  _515
REMARK  221  A    between atoms: _518  and  _520
REMARK  222  A    between atoms: _520  and  _521
REMARK  223  A    between atoms: _520  and  _523
REMARK  224  A    between atoms: _526  and  _528
REMARK  225  A    between atoms: _528  and  _529
REMARK  226  A    between atoms: _528  and  _531
REMARK  227  A    between atoms: _533  and  _535
REMARK  228  A    between atoms: _535  and  _536
REMARK  229  A    between atoms: _535  and  _538
REMARK  230  A    between atoms: _538  and  _539
REMARK  231  A    between atoms: _542  and  _544
REMARK  232  A    between atoms: _544  and  _545
REMARK  233  A    between atoms: _544  and  _547
REMARK  234  A    between atoms: _547  and  _548
REMARK  235  A    between atoms: _548  and  _549
REMARK  236  A    between atoms: _551  and  _553
REMARK  237  A    between atoms: _553  and  _554
REMARK  238  A    between atoms: _553  and  _556
REMARK  239  A    between atoms: _558  and  _560
REMARK  240  A    between atoms: _560  and  _561
REMARK  241  A    between atoms: _560  and  _563
REMARK  242  A    between atoms: _566  and  _568
REMARK  243  A    between atoms: _568  and  _569
REMARK  244  A    between atoms: _568  and  _571
REMARK  245  A    between atoms: _571  and  _572
REMARK  246  A    between atoms: _577  and  _579
REMARK  247  A    between atoms: _579  and  _580
REMARK  248  A    between atoms: _579  and  _582
REMARK  249  A    between atoms: _582  and  _583
REMARK  250  A    between atoms: _588  and  _589
REMARK                            x       y       z     vdW  Elec       q    Type
REMARK                         _______ _______ _______ _____ _____    ______ ____
ROOT
ATOM      1  C   ASP A   8      10.264 -36.271  17.610  0.00  0.00    +0.241 C 
ATOM      2  N   MET A   9      10.373 -37.563  17.302  0.00  0.00    -0.297 N 
ATOM      3  H   MET A   9       9.705 -38.227  17.742  0.00  0.00    +0.150 HD
ATOM      4  O   ASP A   8      11.047 -35.408  17.196  0.00  0.00    -0.273 OA
ENDROOT
BRANCH   1   5
ATOM      5  CA  ASP A   8       9.081 -35.884  18.517  0.00  0.00    +0.160 C 
BRANCH   5   7
ATOM      6  C   MET A   7       7.368 -37.638  18.362  0.00  0.00    +0.241 C 
ATOM      7  N   ASP A   8       8.324 -37.028  19.050  0.00  0.00    -0.297 N 
ATOM      8  H   ASP A   8       8.548 -37.372  20.005  0.00  0.00    +0.150 HD
ATOM      9  O   MET A   7       7.002 -37.273  17.243  0.00  0.00    -0.273 OA
BRANCH   6  10
ATOM     10  CA  MET A   7       6.792 -38.910  19.001  0.00  0.00    +0.149 C 
BRANCH  10  12
ATOM     11  C   SER A   6       8.868 -39.996  19.628  0.00  0.00    +0.243 C 
ATOM     12  N   MET A   7       7.696 -39.482  20.003  0.00  0.00    -0.297 N 
ATOM     13  H   MET A   7       7.423 -39.487  21.007  0.00  0.00    +0.150 HD
ATOM     14  O   SER A   6       9.277 -39.924  18.458  0.00  0.00    -0.273 OA
BRANCH  11  15
ATOM     15  CA  SER A   6       9.681 -40.762  20.686  0.00  0.00    +0.178 C 
BRANCH  15  17
ATOM     16  C   HIS A   5      10.636 -42.436  19.245  0.00  0.00    +0.241 C 
ATOM     17  N   SER A   6      10.816 -41.363  20.017  0.00  0.00    -0.295 N 
ATOM     18  H   SER A   6      11.767 -40.960  20.138  0.00  0.00    +0.150 HD
ATOM     19  O   HIS A   5       9.594 -43.069  19.228  0.00  0.00    -0.273 OA
BRANCH  16  20
ATOM     20  CA  HIS A   5      11.789 -42.801  18.331  0.00  0.00    +0.155 C 
BRANCH  20  23
ATOM     21  C   GLU A   4      12.930 -44.939  18.153  0.00  0.00    +0.241 C 
ATOM     22  O   GLU A   4      14.051 -44.468  18.416  0.00  0.00    -0.273 OA
ATOM     23  N   HIS A   5      11.801 -44.247  18.111  0.00  0.00    -0.297 N 
ATOM     24  H   HIS A   5      10.907 -44.741  17.918  0.00  0.00    +0.150 HD
BRANCH  21  25
ATOM     25  CA  GLU A   4      12.776 -46.401  17.853  0.00  0.00    +0.149 C 
BRANCH  25  27
ATOM     26  C   SER A   3      13.927 -47.477  15.960  0.00  0.00    +0.243 C 
ATOM     27  N   GLU A   4      13.971 -46.811  17.113  0.00  0.00    -0.297 N 
ATOM     28  H   GLU A   4      14.902 -46.570  17.508  0.00  0.00    +0.150 HD
ATOM     29  O   SER A   3      12.886 -47.916  15.473  0.00  0.00    -0.273 OA
BRANCH  26  30
ATOM     30  CA  SER A   3      15.271 -47.718  15.310  0.00  0.00    +0.178 C 
BRANCH  30  33
ATOM     31  C   LEU A   2      16.101 -49.731  14.280  0.00  0.00    +0.241 C 
ATOM     32  O   LEU A   2      17.163 -49.592  14.888  0.00  0.00    -0.273 OA
ATOM     33  N   SER A   3      15.155 -48.801  14.329  0.00  0.00    -0.295 N 
ATOM     34  H   SER A   3      14.343 -48.840  13.680  0.00  0.00    +0.150 HD
BRANCH  31  35
ATOM     35  CA  LEU A   2      15.847 -50.974  13.444  0.00  0.00    +0.149 C 
BRANCH  35  37
ATOM     36  C   PHE A   1      17.311 -51.069  11.517  0.00  0.00    +0.239 C 
ATOM     37  N   LEU A   2      17.042 -51.423  12.761  0.00  0.00    -0.297 N 
ATOM     38  H   LEU A   2      17.708 -52.043  13.265  0.00  0.00    +0.150 HD
ATOM     39  O   PHE A   1      16.566 -50.385  10.837  0.00  0.00    -0.274 OA
BRANCH  36  40
ATOM     40  CA  PHE A   1      18.594 -51.612  10.945  0.00  0.00    +0.149 C 
BRANCH  40  41
ATOM     41  N   PHE A   1      18.441 -51.790   9.513  0.00  0.00    -0.238 NA
ATOM     42  H   PHE A   1      17.874 -51.111   8.966  0.00  0.00    +0.142 HD
ENDBRANCH  40  41
BRANCH  40  43
ATOM     43  CB  PHE A   1      19.794 -50.708  11.286  0.00  0.00    +0.053 C 
BRANCH  43  44
ATOM     44  CG  PHE A   1      19.665 -49.287  10.803  0.00  0.00    -0.020 A 
ATOM     45  CD2 PHE A   1      19.167 -48.285  11.640  0.00  0.00    -0.004 A 
ATOM     46  CE2 PHE A   1      19.068 -46.994  11.201  0.00  0.00    -0.000 A 
ATOM     47  CZ  PHE A   1      19.463 -46.665   9.914  0.00  0.00    -0.000 A 
ATOM     48  CE1 PHE A   1      19.952 -47.631   9.062  0.00  0.00    -0.000 A 
ATOM     49  CD1 PHE A   1      20.057 -48.943   9.505  0.00  0.00    -0.004 A 
ENDBRANCH  43  44
ENDBRANCH  40  43
ENDBRANCH  36  40
ENDBRANCH  35  37
BRANCH  35  50
ATOM     50  CB  LEU A   2      15.349 -52.077  14.378  0.00  0.00    +0.029 C 
BRANCH  50  51
ATOM     51  CG  LEU A   2      15.167 -53.448  13.752  0.00  0.00    +0.002 C 
ATOM     52  CD2 LEU A   2      14.758 -54.489  14.787  0.00  0.00    +0.000 C 
ATOM     53  CD1 LEU A   2      14.157 -53.348  12.618  0.00  0.00    +0.000 C 
ENDBRANCH  50  51
ENDBRANCH  35  50
ENDBRANCH  31  35
ENDBRANCH  30  33
BRANCH  30  54
ATOM     54  CB  SER A   3      15.814 -46.442  14.668  0.00  0.00    +0.166 C 
BRANCH  54  55
ATOM     55  OG  SER A   3      14.969 -45.987  13.621  0.00  0.00    -0.380 OA
ATOM     56  H   SER A   3      14.068 -45.797  13.985  0.00  0.00    +0.211 HD
ENDBRANCH  54  55
ENDBRANCH  30  54
ENDBRANCH  26  30
ENDBRANCH  25  27
BRANCH  25  57
ATOM     57  CB  GLU A   4      12.635 -47.179  19.157  0.00  0.00    +0.041 C 
BRANCH  57  58
ATOM     58  CG  GLU A   4      11.334 -46.980  19.896  0.00  0.00    +0.116 C 
BRANCH  58  59
ATOM     59  CD  GLU A   4      11.441 -47.601  21.268  0.00  0.00    +0.365 C 
ATOM     60  OE2 GLU A   4      11.967 -46.899  22.155  0.00  0.00    -0.246 OA
ATOM     61  OE1 GLU A   4      11.042 -48.787  21.423  0.00  0.00    -0.246 OA
ENDBRANCH  58  59
ENDBRANCH  57  58
ENDBRANCH  25  57
ENDBRANCH  21  25
ENDBRANCH  20  23
BRANCH  20  62
ATOM     62  CB  HIS A   5      11.635 -42.081  16.994  0.00  0.00    +0.076 C 
BRANCH  62  63
ATOM     63  CG  HIS A   5      12.679 -42.464  15.995  0.00  0.00    +0.082 A 
ATOM     64  ND1 HIS A   5      13.732 -41.642  15.650  0.00  0.00    -0.227 NA
ATOM     65  CE1 HIS A   5      14.490 -42.253  14.757  0.00  0.00    +0.199 A 
ATOM     66  NE2 HIS A   5      13.967 -43.445  14.512  0.00  0.00    -0.221 NA
ATOM     67  CD2 HIS A   5      12.832 -43.603  15.264  0.00  0.00    +0.115 A 
ENDBRANCH  62  63
ENDBRANCH  20  62
ENDBRANCH  16  20
ENDBRANCH  15  17
BRANCH  15  68
ATOM     68  CB  SER A   6      10.151 -39.904  21.867  0.00  0.00    +0.166 C 
BRANCH  68  69
ATOM     69  OG  SER A   6      11.308 -39.186  21.527  0.00  0.00    -0.380 OA
ATOM     70  H   SER A   6      11.114 -38.594  20.758  0.00  0.00    +0.211 HD
ENDBRANCH  68  69
ENDBRANCH  15  68
ENDBRANCH  11  15
ENDBRANCH  10  12
BRANCH  10  71
ATOM     71  CB  MET A   7       5.401 -38.674  19.585  0.00  0.00    +0.041 C 
BRANCH  71  72
ATOM     72  CG  MET A   7       4.667 -39.968  20.029  0.00  0.00    +0.060 C 
BRANCH  72  73
ATOM     73  SD  MET A   7       4.707 -41.296  18.811  0.00  0.00    -0.139 S 
ATOM     74  CE  MET A   7       3.868 -40.558  17.419  0.00  0.00    +0.069 C 
ENDBRANCH  72  73
ENDBRANCH  71  72
ENDBRANCH  10  71
ENDBRANCH   6  10
ENDBRANCH   5   7
BRANCH   5  75
ATOM     75  CB  ASP A   8       9.580 -35.024  19.674  0.00  0.00    +0.143 C 
BRANCH  75  76
ATOM     76  CG  ASP A   8      10.461 -35.789  20.649  0.00  0.00    +0.367 C 
ATOM     77  OD2 ASP A   8      10.707 -35.274  21.762  0.00  0.00    -0.246 OA
ATOM     78  OD1 ASP A   8      10.912 -36.907  20.320  0.00  0.00    -0.246 OA
ENDBRANCH  75  76
ENDBRANCH   5  75
ENDBRANCH   1   5
BRANCH   2  79
ATOM     79  CA  MET A   9      11.377 -38.107  16.380  0.00  0.00    +0.149 C 
BRANCH  79  80
ATOM     80  C   MET A   9      12.753 -38.256  16.991  0.00  0.00    +0.241 C 
ATOM     81  N   LYS A  10      12.873 -37.993  18.291  0.00  0.00    -0.297 N 
ATOM     82  H   LYS A  10      12.069 -37.608  18.826  0.00  0.00    +0.150 HD
ATOM     83  O   MET A   9      13.691 -38.685  16.322  0.00  0.00    -0.273 OA
BRANCH  81  84
ATOM     84  CA  LYS A  10      14.141 -38.250  18.954  0.00  0.00    +0.149 C 
BRANCH  84  85
ATOM     85  C   LYS A  10      14.398 -39.761  19.028  0.00  0.00    +0.241 C 
ATOM     86  O   LYS A  10      13.514 -40.543  19.393  0.00  0.00    -0.273 OA
ATOM     87  N   PHE A  11      15.611 -40.185  18.704  0.00  0.00    -0.297 N 
ATOM     88  H   PHE A  11      16.309 -39.516  18.321  0.00  0.00    +0.150 HD
BRANCH  87  89
ATOM     89  CA  PHE A  11      15.967 -41.580  18.882  0.00  0.00    +0.153 C 
BRANCH  89  90
ATOM     90  C   PHE A  11      15.873 -41.999  20.354  0.00  0.00    +0.241 C 
ATOM     91  O   PHE A  11      16.405 -41.321  21.244  0.00  0.00    -0.273 OA
ATOM     92  N   THR A  12      15.207 -43.116  20.581  0.00  0.00    -0.295 N 
ATOM     93  H   THR A  12      14.665 -43.542  19.802  0.00  0.00    +0.150 HD
BRANCH  92  94
ATOM     94  CA  THR A  12      15.202 -43.776  21.883  0.00  0.00    +0.176 C 
BRANCH  94  95
ATOM     95  C   THR A  12      15.910 -45.129  21.846  0.00  0.00    +0.243 C 
ATOM     96  O   THR A  12      16.290 -45.662  22.888  0.00  0.00    -0.273 OA
ATOM     97  N   TYR A  13      16.121 -45.665  20.649  0.00  0.00    -0.297 N 
ATOM     98  H   TYR A  13      15.751 -45.178  19.808  0.00  0.00    +0.150 HD
BRANCH  97  99
ATOM     99  CA  TYR A  13      16.851 -46.909  20.477  0.00  0.00    +0.153 C 
BRANCH  99 100
ATOM    100  C   TYR A  13      17.357 -46.955  19.045  0.00  0.00    +0.241 C 
ATOM    101  N   CYS A  14      18.531 -47.528  18.831  0.00  0.00    -0.296 N 
ATOM    102  H   CYS A  14      19.144 -47.750  19.641  0.00  0.00    +0.150 HD
ATOM    103  O   TYR A  13      16.677 -46.498  18.142  0.00  0.00    -0.273 OA
BRANCH 101 104
ATOM    104  CA  CYS A  14      18.982 -47.854  17.485  0.00  0.00    +0.160 C 
BRANCH 104 105
ATOM    105  C   CYS A  14      19.806 -49.131  17.537  0.00  0.00    +0.242 C 
ATOM    106  O   CYS A  14      20.590 -49.354  18.463  0.00  0.00    -0.273 OA
ATOM    107  N   ASP A  15      19.602 -50.014  16.568  0.00  0.00    -0.298 N 
ATOM    108  H   ASP A  15      18.900 -49.816  15.827  0.00  0.00    +0.150 HD
BRANCH 107 109
ATOM    109  CA  ASP A  15      20.351 -51.251  16.537  0.00  0.00    +0.148 C 
BRANCH 109 110
ATOM    110  C   ASP A  15      21.761 -51.038  15.930  0.00  0.00    +0.227 C 
ATOM    111  O   ASP A  15      21.989 -50.062  15.212  0.00  0.00    -0.286 OA
ENDBRANCH 109 110
BRANCH 109 112
ATOM    112  CB  ASP A  15      19.444 -52.416  16.028  0.00  0.00    +0.142 C 
BRANCH 112 113
ATOM    113  CG  ASP A  15      19.841 -53.017  14.690  0.00  0.00    +0.367 C 
ATOM    114  OD2 ASP A  15      21.007 -53.405  14.515  0.00  0.00    -0.246 OA
ATOM    115  OD1 ASP A  15      18.904 -53.273  13.884  0.00  0.00    -0.246 OA
ENDBRANCH 112 113
ENDBRANCH 109 112
ENDBRANCH 107 109
ENDBRANCH 104 105
BRANCH 104 116
ATOM    116  CB  CYS A  14      19.838 -46.753  16.920  0.00  0.00    +0.098 C 
ATOM    117  SG  CYS A  14      20.033 -46.909  15.103  0.00  0.00    -0.080 S 
ENDBRANCH 104 116
ENDBRANCH 101 104
ENDBRANCH  99 100
BRANCH  99 118
ATOM    118  CB  TYR A  13      15.944 -48.141  20.756  0.00  0.00    +0.055 C 
BRANCH 118 119
ATOM    119  CG  TYR A  13      16.584 -49.440  20.331  0.00  0.00    -0.020 A 
ATOM    120  CD2 TYR A  13      17.469 -50.111  21.161  0.00  0.00    -0.001 A 
ATOM    121  CE2 TYR A  13      18.086 -51.265  20.743  0.00  0.00    +0.036 A 
ATOM    122  CZ  TYR A  13      17.823 -51.763  19.486  0.00  0.00    +0.134 A 
ATOM    123  CE1 TYR A  13      16.943 -51.157  18.661  0.00  0.00    +0.036 A 
ATOM    124  CD1 TYR A  13      16.338 -49.972  19.065  0.00  0.00    -0.001 A 
BRANCH 122 125
ATOM    125  OH  TYR A  13      18.420 -52.931  19.083  0.00  0.00    -0.506 OA
ATOM    126  HH  TYR A  13      18.128 -53.149  18.162  0.00  0.00    +0.292 HD
ENDBRANCH 122 125
ENDBRANCH 118 119
ENDBRANCH  99 118
ENDBRANCH  97  99
ENDBRANCH  94  95
BRANCH  94 127
ATOM    127  CB  THR A  12      13.783 -43.923  22.402  0.00  0.00    +0.137 C 
ATOM    128  CG2 THR A  12      13.196 -42.557  22.655  0.00  0.00    +0.034 C 
BRANCH 127 129
ATOM    129  OG1 THR A  12      12.985 -44.603  21.429  0.00  0.00    -0.382 OA
ATOM    130  HG1 THR A  12      13.368 -45.500  21.258  0.00  0.00    +0.210 HD
ENDBRANCH 127 129
ENDBRANCH  94 127
ENDBRANCH  92  94
ENDBRANCH  89  90
BRANCH  89 131
ATOM    131  CB  PHE A  11      17.399 -41.874  18.442  0.00  0.00    +0.055 C 
BRANCH 131 132
ATOM    132  CG  PHE A  11      17.620 -41.927  16.954  0.00  0.00    -0.020 A 
ATOM    133  CD2 PHE A  11      17.584 -43.156  16.288  0.00  0.00    -0.004 A 
ATOM    134  CE2 PHE A  11      17.832 -43.207  14.932  0.00  0.00    -0.000 A 
ATOM    135  CZ  PHE A  11      18.171 -42.068  14.232  0.00  0.00    -0.000 A 
ATOM    136  CE1 PHE A  11      18.238 -40.840  14.890  0.00  0.00    -0.000 A 
ATOM    137  CD1 PHE A  11      17.986 -40.786  16.244  0.00  0.00    -0.004 A 
ENDBRANCH 131 132
ENDBRANCH  89 131
ENDBRANCH  87  89
ENDBRANCH  84  85
BRANCH  84 138
ATOM    138  CB  LYS A  10      14.142 -37.666  20.368  0.00  0.00    +0.029 C 
BRANCH 138 139
ATOM    139  CG  LYS A  10      14.283 -36.178  20.458  0.00  0.00    +0.000 C 
BRANCH 139 140
ATOM    140  CD  LYS A  10      14.195 -35.768  21.928  0.00  0.00    -0.024 C 
BRANCH 140 141
ATOM    141  CE  LYS A  10      14.488 -34.318  22.158  0.00  0.00    -0.086 C 
BRANCH 141 142
ATOM    142  NZ  LYS A  10      14.342 -34.014  23.617  0.00  0.00    +0.380 N 
ATOM    143  HZ1 LYS A  10      15.011 -34.597  24.160  0.00  0.00    -0.089 HD
ATOM    144  HZ2 LYS A  10      13.370 -34.227  23.919  0.00  0.00    -0.089 HD
ATOM    145  HZ3 LYS A  10      14.545 -33.007  23.782  0.00  0.00    -0.089 HD
ENDBRANCH 141 142
ENDBRANCH 140 141
ENDBRANCH 139 140
ENDBRANCH 138 139
ENDBRANCH  84 138
ENDBRANCH  81  84
ENDBRANCH  79  80
BRANCH  79 146
ATOM    146  CB  MET A   9      11.479 -37.286  15.087  0.00  0.00    +0.041 C 
BRANCH 146 147
ATOM    147  CG  MET A   9      10.863 -37.979  13.887  0.00  0.00    +0.060 C 
BRANCH 147 148
ATOM    148  SD  MET A   9      11.260 -37.165  12.336  0.00  0.00    -0.139 S 
ATOM    149  CE  MET A   9      10.181 -38.052  11.229  0.00  0.00    +0.069 C 
ENDBRANCH 147 148
ENDBRANCH 146 147
ENDBRANCH  79 146
ENDBRANCH   2  79
TORSDOF 66
REMARK  Name = ../refined-set-2016/4ghi/4ghi_pocket.pdb
REMARK  250 active torsions:
REMARK  status: ('A' for Active; 'I' for Inactive)
REMARK    1  A    between atoms: _1  and  _3
REMARK    2  A    between atoms: _3  and  _4
REMARK    3  A    between atoms: _3  and  _6
REMARK    4  A    between atoms: _6  and  _7
REMARK    5  A    between atoms: _13  and  _15
REMARK    6  A    between atoms: _15  and  _16
REMARK    7  A    between atoms: _15  and  _18
REMARK    8  A    between atoms: _18  and  _19
REMARK    9  A    between atoms: _22  and  _24
REMARK   10  A    between atoms: _24  and  _25
REMARK   11  A    between atoms: _24  and  _27
REMARK   12  A    between atoms: _27  and  _28
REMARK   13  A    between atoms: _30  and  _32
REMARK   14  A    between atoms: _32  and  _33
REMARK   15  A    between atoms: _32  and  _35
REMARK   16  A    between atoms: _35  and  _36
REMARK   17  A    between atoms: _36  and  _37
REMARK   18  A    between atoms: _40  and  _42
REMARK   19  A    between atoms: _42  and  _43
REMARK   20  A    between atoms: _42  and  _45
REMARK   21  A    between atoms: _45  and  _46
REMARK   22  A    between atoms: _51  and  _53
REMARK   23  A    between atoms: _53  and  _54
REMARK   24  A    between atoms: _53  and  _56
REMARK   25  A    between atoms: _56  and  _57
REMARK   26  A    between atoms: _59  and  _61
REMARK   27  A    between atoms: _61  and  _62
REMARK   28  A    between atoms: _61  and  _64
REMARK   29  A    between atoms: _64  and  _65
REMARK   30  A    between atoms: _65  and  _66
REMARK   31  A    between atoms: _68  and  _70
REMARK   32  A    between atoms: _70  and  _71
REMARK   33  A    between atoms: _70  and  _73
REMARK   34  A    between atoms: _73  and  _74
REMARK   35  A    between atoms: _77  and  _79
REMARK   36  A    between atoms: _79  and  _80
REMARK   37  A    between atoms: _79  and  _82
REMARK   38  A    between atoms: _82  and  _83
REMARK   39  A    between atoms: _83  and  _84
REMARK   40  A    between atoms: _86  and  _88
REMARK   41  A    between atoms: _88  and  _89
REMARK   42  A    between atoms: _88  and  _91
REMARK   43  A    between atoms: _91  and  _92
REMARK   44  A    between atoms: _92  and  _93
REMARK   45  A    between atoms: _93  and  _94
REMARK   46  A    between atoms: _94  and  _95
REMARK   47  A    between atoms: _99  and  _101
REMARK   48  A    between atoms: _101  and  _102
REMARK   49  A    between atoms: _101  and  _104
REMARK   50  A    between atoms: _104  and  _105
REMARK   51  A    between atoms: _111  and  _113
REMARK   52  A    between atoms: _113  and  _114
REMARK   53  A    between atoms: _113  and  _116
REMARK   54  A    between atoms: _116  and  _117
REMARK   55  A    between atoms: _120  and  _122
REMARK   56  A    between atoms: _122  and  _123
REMARK   57  A    between atoms: _122  and  _125
REMARK   58  A    between atoms: _125  and  _126
REMARK   59  A    between atoms: _131  and  _132
REMARK   60  A    between atoms: _134  and  _136
REMARK   61  A    between atoms: _136  and  _137
REMARK   62  A    between atoms: _136  and  _139
REMARK   63  A    between atoms: _141  and  _143
REMARK   64  A    between atoms: _143  and  _144
REMARK   65  A    between atoms: _143  and  _146
REMARK   66  A    between atoms: _146  and  _147
REMARK   67  A    between atoms: _150  and  _152
REMARK   68  A    between atoms: _152  and  _153
REMARK   69  A    between atoms: _152  and  _155
REMARK   70  A    between atoms: _155  and  _156
REMARK   71  A    between atoms: _159  and  _161
REMARK   72  A    between atoms: _161  and  _162
REMARK   73  A    between atoms: _161  and  _164
REMARK   74  A    between atoms: _164  and  _165
REMARK   75  A    between atoms: _168  and  _170
REMARK   76  A    between atoms: _170  and  _171
REMARK   77  A    between atoms: _170  and  _173
REMARK   78  A    between atoms: _173  and  _174
REMARK   79  A    between atoms: _179  and  _180
REMARK   80  A    between atoms: _182  and  _184
REMARK   81  A    between atoms: _184  and  _185
REMARK   82  A    between atoms: _184  and  _187
REMARK   83  A    between atoms: _187  and  _188
REMARK   84  A    between atoms: _191  and  _193
REMARK   85  A    between atoms: _193  and  _194
REMARK   86  A    between atoms: _193  and  _196
REMARK   87  A    between atoms: _196  and  _197
REMARK   88  A    between atoms: _199  and  _201
REMARK   89  A    between atoms: _201  and  _202
REMARK   90  A    between atoms: _205  and  _207
REMARK   91  A    between atoms: _207  and  _208
REMARK   92  A    between atoms: _207  and  _210
REMARK   93  A    between atoms: _210  and  _211
REMARK   94  A    between atoms: _216  and  _217
REMARK   95  A    between atoms: _219  and  _221
REMARK   96  A    between atoms: _221  and  _222
REMARK   97  A    between atoms: _221  and  _224
REMARK   98  A    between atoms: _224  and  _225
REMARK   99  A    between atoms: _225  and  _226
REMARK  100  A    between atoms: _229  and  _231
REMARK  101  A    between atoms: _231  and  _232
REMARK  102  A    between atoms: _231  and  _234
REMARK  103  A    between atoms: _234  and  _235
REMARK  104  A    between atoms: _241  and  _243
REMARK  105  A    between atoms: _243  and  _244
REMARK  106  A    between atoms: _243  and  _246
REMARK  107  A    between atoms: _246  and  _247
REMARK  108  A    between atoms: _252  and  _253
REMARK  109  A    between atoms: _255  and  _257
REMARK  110  A    between atoms: _257  and  _258
REMARK  111  A    between atoms: _257  and  _260
REMARK  112  A    between atoms: _260  and  _261
REMARK  113  A    between atoms: _266  and  _268
REMARK  114  A    between atoms: _268  and  _269
REMARK  115  A    between atoms: _268  and  _271
REMARK  116  A    between atoms: _271  and  _272
REMARK  117  A    between atoms: _277  and  _279
REMARK  118  A    between atoms: _279  and  _280
REMARK  119  A    between atoms: _279  and  _282
REMARK  120  A    between atoms: _282  and  _283
REMARK  121  A    between atoms: _283  and  _284
REMARK  122  A    between atoms: _286  and  _288
REMARK  123  A    between atoms: _288  and  _289
REMARK  124  A    between atoms: _288  and  _291
REMARK  125  A    between atoms: _291  and  _292
REMARK  126  A    between atoms: _295  and  _297
REMARK  127  A    between atoms: _297  and  _298
REMARK  128  A    between atoms: _297  and  _300
REMARK  129  A    between atoms: _300  and  _301
REMARK  130  A    between atoms: _301  and  _302
REMARK  131  A    between atoms: _302  and  _303
REMARK  132  A    between atoms: _303  and  _304
REMARK  133  A    between atoms: _308  and  _310
REMARK  134  A    between atoms: _310  and  _311
REMARK  135  A    between atoms: _310  and  _313
REMARK  136  A    between atoms: _313  and  _314
REMARK  137  A    between atoms: _316  and  _318
REMARK  138  A    between atoms: _318  and  _319
REMARK  139  A    between atoms: _318  and  _321
REMARK  140  A    between atoms: _321  and  _322
REMARK  141  A    between atoms: _327  and  _329
REMARK  142  A    between atoms: _329  and  _330
REMARK  143  A    between atoms: _329  and  _332
REMARK  144  A    between atoms: _332  and  _333
REMARK  145  A    between atoms: _333  and  _334
REMARK  146  A    between atoms: _339  and  _341
REMARK  147  A    between atoms: _341  and  _342
REMARK  148  A    between atoms: _341  and  _344
REMARK  149  A    between atoms: _344  and  _345
REMARK  150  A    between atoms: _350  and  _352
REMARK  151  A    between atoms: _352  and  _353
REMARK  152  A    between atoms: _352  and  _355
REMARK  153  A    between atoms: _355  and  _356
REMARK  154  A    between atoms: _359  and  _361
REMARK  155  A    between atoms: _361  and  _362
REMARK  156  A    between atoms: _361  and  _364
REMARK  157  A    between atoms: _366  and  _368
REMARK  158  A    between atoms: _368  and  _369
REMARK  159  A    between atoms: _368  and  _371
REMARK  160  A    between atoms: _371  and  _372
REMARK  161  A    between atoms: _372  and  _373
REMARK  162  A    between atoms: _378  and  _380
REMARK  163  A    between atoms: _380  and  _381
REMARK  164  A    between atoms: _380  and  _383
REMARK  165  A    between atoms: _386  and  _388
REMARK  166  A    between atoms: _388  and  _389
REMARK  167  A    between atoms: _388  and  _391
REMARK  168  A    between atoms: _394  and  _396
REMARK  169  A    between atoms: _396  and  _397
REMARK  170  A    between atoms: _396  and  _399
REMARK  171  A    between atoms: _399  and  _400
REMARK  172  A    between atoms: _402  and  _404
REMARK  173  A    between atoms: _404  and  _405
REMARK  174  A    between atoms: _407  and  _409
REMARK  175  A    between atoms: _409  and  _410
REMARK  176  A    between atoms: _409  and  _412
REMARK  177  A    between atoms: _412  and  _413
REMARK  178  A    between atoms: _418  and  _419
REMARK  179  A    between atoms: _421  and  _423
REMARK  180  A    between atoms: _423  and  _424
REMARK  181  A    between atoms: _423  and  _426
REMARK  182  A    between atoms: _426  and  _427
REMARK  183  A    between atoms: _427  and  _428
REMARK  184  A    between atoms: _428  and  _429
REMARK  185  A    between atoms: _438  and  _440
REMARK  186  A    between atoms: _440  and  _441
REMARK  187  A    between atoms: _440  and  _443
REMARK  188  A    between atoms: _443  and  _444
REMARK  189  A    between atoms: _444  and  _445
REMARK  190  A    between atoms: _447  and  _449
REMARK  191  A    between atoms: _449  and  _450
REMARK  192  A    between atoms: _449  and  _452
REMARK  193  A    between atoms: _452  and  _453
REMARK  194  A    between atoms: _456  and  _458
REMARK  195  A    between atoms: _458  and  _459
REMARK  196  A    between atoms: _458  and  _461
REMARK  197  A    between atoms: _464  and  _466
REMARK  198  A    between atoms: _466  and  _467
REMARK  199  A    between atoms: _466  and  _469
REMARK  200  A    between atoms: _469  and  _470
REMARK  201  A    between atoms: _473  and  _475
REMARK  202  A    between atoms: _475  and  _476
REMARK  203  A    between atoms: _475  and  _478
REMARK  204  A    between atoms: _478  and  _479
REMARK  205  A    between atoms: _479  and  _480
REMARK  206  A    between atoms: _483  and  _485
REMARK  207  A    between atoms: _485  and  _486
REMARK  208  A    between atoms: _485  and  _488
REMARK  209  A    between atoms: _488  and  _489
REMARK  210  A    between atoms: _492  and  _494
REMARK  211  A    between atoms: _494  and  _495
REMARK  212  A    between atoms: _494  and  _497
REMARK  213  A    between atoms: _497  and  _498
REMARK  214  A    between atoms: _498  and  _499
REMARK  215  A    between atoms: _504  and  _506
REMARK  216  A    between atoms: _506  and  _507
REMARK  217  A    between atoms: _509  and  _511
REMARK  218  A    between atoms: _511  and  _512
REMARK  219  A    between atoms: _511  and  _514
REMARK  220  A    between atoms: _514  and  _515
REMARK  221  A    between atoms: _518  and  _520
REMARK  222  A    between atoms: _520  and  _521
REMARK  223  A    between atoms: _520  and  _523
REMARK  224  A    between atoms: _526  and  _528
REMARK  225  A    between atoms: _528  and  _529
REMARK  226  A    between atoms: _528  and  _531
REMARK  227  A    between atoms: _533  and  _535
REMARK  228  A    between atoms: _535  and  _536
REMARK  229  A    between atoms: _535  and  _538
REMARK  230  A    between atoms: _538  and  _539
REMARK  231  A    between atoms: _542  and  _544
REMARK  232  A    between atoms: _544  and  _545
REMARK  233  A    between atoms: _544  and  _547
REMARK  234  A    between atoms: _547  and  _548
REMARK  235  A    between atoms: _548  and  _549
REMARK  236  A    between atoms: _551  and  _553
REMARK  237  A    between atoms: _553  and  _554
REMARK  238  A    between atoms: _553  and  _556
REMARK  239  A    between atoms: _558  and  _560
REMARK  240  A    between atoms: _560  and  _561
REMARK  241  A    between atoms: _560  and  _563
REMARK  242  A    between atoms: _566  and  _568
REMARK  243  A    between atoms: _568  and  _569
REMARK  244  A    between atoms: _568  and  _571
REMARK  245  A    between atoms: _571  and  _572
REMARK  246  A    between atoms: _577  and  _579
REMARK  247  A    between atoms: _579  and  _580
REMARK  248  A    between atoms: _579  and  _582
REMARK  249  A    between atoms: _582  and  _583
REMARK  250  A    between atoms: _588  and  _589
REMARK                            x       y       z     vdW  Elec       q    Type
REMARK                         _______ _______ _______ _____ _____    ______ ____
ROOT
ATOM      1  CA  ILE A   1      23.794 -48.694  11.784  0.00  0.00    +0.133 C 
ENDROOT
BRANCH   1   2
ATOM      2  N   ILE A   1      23.612 -50.024  12.350  0.00  0.00    -0.239 NA
ATOM      3  H   ILE A   1      23.125 -50.130  13.263  0.00  0.00    +0.142 HD
ENDBRANCH   1   2
BRANCH   1   4
ATOM      4  CB  ILE A   1      22.986 -47.601  12.560  0.00  0.00    +0.023 C 
ATOM      5  CG2 ILE A   1      23.596 -47.299  13.921  0.00  0.00    +0.002 C 
BRANCH   4   6
ATOM      6  CG1 ILE A   1      22.880 -46.323  11.711  0.00  0.00    +0.002 C 
ATOM      7  CD1 ILE A   1      22.094 -45.223  12.342  0.00  0.00    +0.000 C 
ENDBRANCH   4   6
ENDBRANCH   1   4
BRANCH   1   8
ATOM      8  C   ILE A   1      25.260 -48.305  11.730  0.00  0.00    +0.224 C 
ATOM      9  O   ILE A   1      25.671 -47.552  10.853  0.00  0.00    -0.287 OA
ENDBRANCH   1   8
TORSDOF 4
REMARK  Name = ../refined-set-2016/4ghi/4ghi_pocket.pdb
REMARK  250 active torsions:
REMARK  status: ('A' for Active; 'I' for Inactive)
REMARK    1  A    between atoms: _1  and  _3
REMARK    2  A    between atoms: _3  and  _4
REMARK    3  A    between atoms: _3  and  _6
REMARK    4  A    between atoms: _6  and  _7
REMARK    5  A    between atoms: _13  and  _15
REMARK    6  A    between atoms: _15  and  _16
REMARK    7  A    between atoms: _15  and  _18
REMARK    8  A    between atoms: _18  and  _19
REMARK    9  A    between atoms: _22  and  _24
REMARK   10  A    between atoms: _24  and  _25
REMARK   11  A    between atoms: _24  and  _27
REMARK   12  A    between atoms: _27  and  _28
REMARK   13  A    between atoms: _30  and  _32
REMARK   14  A    between atoms: _32  and  _33
REMARK   15  A    between atoms: _32  and  _35
REMARK   16  A    between atoms: _35  and  _36
REMARK   17  A    between atoms: _36  and  _37
REMARK   18  A    between atoms: _40  and  _42
REMARK   19  A    between atoms: _42  and  _43
REMARK   20  A    between atoms: _42  and  _45
REMARK   21  A    between atoms: _45  and  _46
REMARK   22  A    between atoms: _51  and  _53
REMARK   23  A    between atoms: _53  and  _54
REMARK   24  A    between atoms: _53  and  _56
REMARK   25  A    between atoms: _56  and  _57
REMARK   26  A    between atoms: _59  and  _61
REMARK   27  A    between atoms: _61  and  _62
REMARK   28  A    between atoms: _61  and  _64
REMARK   29  A    between atoms: _64  and  _65
REMARK   30  A    between atoms: _65  and  _66
REMARK   31  A    between atoms: _68  and  _70
REMARK   32  A    between atoms: _70  and  _71
REMARK   33  A    between atoms: _70  and  _73
REMARK   34  A    between atoms: _73  and  _74
REMARK   35  A    between atoms: _77  and  _79
REMARK   36  A    between atoms: _79  and  _80
REMARK   37  A    between atoms: _79  and  _82
REMARK   38  A    between atoms: _82  and  _83
REMARK   39  A    between atoms: _83  and  _84
REMARK   40  A    between atoms: _86  and  _88
REMARK   41  A    between atoms: _88  and  _89
REMARK   42  A    between atoms: _88  and  _91
REMARK   43  A    between atoms: _91  and  _92
REMARK   44  A    between atoms: _92  and  _93
REMARK   45  A    between atoms: _93  and  _94
REMARK   46  A    between atoms: _94  and  _95
REMARK   47  A    between atoms: _99  and  _101
REMARK   48  A    between atoms: _101  and  _102
REMARK   49  A    between atoms: _101  and  _104
REMARK   50  A    between atoms: _104  and  _105
REMARK   51  A    between atoms: _111  and  _113
REMARK   52  A    between atoms: _113  and  _114
REMARK   53  A    between atoms: _113  and  _116
REMARK   54  A    between atoms: _116  and  _117
REMARK   55  A    between atoms: _120  and  _122
REMARK   56  A    between atoms: _122  and  _123
REMARK   57  A    between atoms: _122  and  _125
REMARK   58  A    between atoms: _125  and  _126
REMARK   59  A    between atoms: _131  and  _132
REMARK   60  A    between atoms: _134  and  _136
REMARK   61  A    between atoms: _136  and  _137
REMARK   62  A    between atoms: _136  and  _139
REMARK   63  A    between atoms: _141  and  _143
REMARK   64  A    between atoms: _143  and  _144
REMARK   65  A    between atoms: _143  and  _146
REMARK   66  A    between atoms: _146  and  _147
REMARK   67  A    between atoms: _150  and  _152
REMARK   68  A    between atoms: _152  and  _153
REMARK   69  A    between atoms: _152  and  _155
REMARK   70  A    between atoms: _155  and  _156
REMARK   71  A    between atoms: _159  and  _161
REMARK   72  A    between atoms: _161  and  _162
REMARK   73  A    between atoms: _161  and  _164
REMARK   74  A    between atoms: _164  and  _165
REMARK   75  A    between atoms: _168  and  _170
REMARK   76  A    between atoms: _170  and  _171
REMARK   77  A    between atoms: _170  and  _173
REMARK   78  A    between atoms: _173  and  _174
REMARK   79  A    between atoms: _179  and  _180
REMARK   80  A    between atoms: _182  and  _184
REMARK   81  A    between atoms: _184  and  _185
REMARK   82  A    between atoms: _184  and  _187
REMARK   83  A    between atoms: _187  and  _188
REMARK   84  A    between atoms: _191  and  _193
REMARK   85  A    between atoms: _193  and  _194
REMARK   86  A    between atoms: _193  and  _196
REMARK   87  A    between atoms: _196  and  _197
REMARK   88  A    between atoms: _199  and  _201
REMARK   89  A    between atoms: _201  and  _202
REMARK   90  A    between atoms: _205  and  _207
REMARK   91  A    between atoms: _207  and  _208
REMARK   92  A    between atoms: _207  and  _210
REMARK   93  A    between atoms: _210  and  _211
REMARK   94  A    between atoms: _216  and  _217
REMARK   95  A    between atoms: _219  and  _221
REMARK   96  A    between atoms: _221  and  _222
REMARK   97  A    between atoms: _221  and  _224
REMARK   98  A    between atoms: _224  and  _225
REMARK   99  A    between atoms: _225  and  _226
REMARK  100  A    between atoms: _229  and  _231
REMARK  101  A    between atoms: _231  and  _232
REMARK  102  A    between atoms: _231  and  _234
REMARK  103  A    between atoms: _234  and  _235
REMARK  104  A    between atoms: _241  and  _243
REMARK  105  A    between atoms: _243  and  _244
REMARK  106  A    between atoms: _243  and  _246
REMARK  107  A    between atoms: _246  and  _247
REMARK  108  A    between atoms: _252  and  _253
REMARK  109  A    between atoms: _255  and  _257
REMARK  110  A    between atoms: _257  and  _258
REMARK  111  A    between atoms: _257  and  _260
REMARK  112  A    between atoms: _260  and  _261
REMARK  113  A    between atoms: _266  and  _268
REMARK  114  A    between atoms: _268  and  _269
REMARK  115  A    between atoms: _268  and  _271
REMARK  116  A    between atoms: _271  and  _272
REMARK  117  A    between atoms: _277  and  _279
REMARK  118  A    between atoms: _279  and  _280
REMARK  119  A    between atoms: _279  and  _282
REMARK  120  A    between atoms: _282  and  _283
REMARK  121  A    between atoms: _283  and  _284
REMARK  122  A    between atoms: _286  and  _288
REMARK  123  A    between atoms: _288  and  _289
REMARK  124  A    between atoms: _288  and  _291
REMARK  125  A    between atoms: _291  and  _292
REMARK  126  A    between atoms: _295  and  _297
REMARK  127  A    between atoms: _297  and  _298
REMARK  128  A    between atoms: _297  and  _300
REMARK  129  A    between atoms: _300  and  _301
REMARK  130  A    between atoms: _301  and  _302
REMARK  131  A    between atoms: _302  and  _303
REMARK  132  A    between atoms: _303  and  _304
REMARK  133  A    between atoms: _308  and  _310
REMARK  134  A    between atoms: _310  and  _311
REMARK  135  A    between atoms: _310  and  _313
REMARK  136  A    between atoms: _313  and  _314
REMARK  137  A    between atoms: _316  and  _318
REMARK  138  A    between atoms: _318  and  _319
REMARK  139  A    between atoms: _318  and  _321
REMARK  140  A    between atoms: _321  and  _322
REMARK  141  A    between atoms: _327  and  _329
REMARK  142  A    between atoms: _329  and  _330
REMARK  143  A    between atoms: _329  and  _332
REMARK  144  A    between atoms: _332  and  _333
REMARK  145  A    between atoms: _333  and  _334
REMARK  146  A    between atoms: _339  and  _341
REMARK  147  A    between atoms: _341  and  _342
REMARK  148  A    between atoms: _341  and  _344
REMARK  149  A    between atoms: _344  and  _345
REMARK  150  A    between atoms: _350  and  _352
REMARK  151  A    between atoms: _352  and  _353
REMARK  152  A    between atoms: _352  and  _355
REMARK  153  A    between atoms: _355  and  _356
REMARK  154  A    between atoms: _359  and  _361
REMARK  155  A    between atoms: _361  and  _362
REMARK  156  A    between atoms: _361  and  _364
REMARK  157  A    between atoms: _366  and  _368
REMARK  158  A    between atoms: _368  and  _369
REMARK  159  A    between atoms: _368  and  _371
REMARK  160  A    between atoms: _371  and  _372
REMARK  161  A    between atoms: _372  and  _373
REMARK  162  A    between atoms: _378  and  _380
REMARK  163  A    between atoms: _380  and  _381
REMARK  164  A    between atoms: _380  and  _383
REMARK  165  A    between atoms: _386  and  _388
REMARK  166  A    between atoms: _388  and  _389
REMARK  167  A    between atoms: _388  and  _391
REMARK  168  A    between atoms: _394  and  _396
REMARK  169  A    between atoms: _396  and  _397
REMARK  170  A    between atoms: _396  and  _399
REMARK  171  A    between atoms: _399  and  _400
REMARK  172  A    between atoms: _402  and  _404
REMARK  173  A    between atoms: _404  and  _405
REMARK  174  A    between atoms: _407  and  _409
REMARK  175  A    between atoms: _409  and  _410
REMARK  176  A    between atoms: _409  and  _412
REMARK  177  A    between atoms: _412  and  _413
REMARK  178  A    between atoms: _418  and  _419
REMARK  179  A    between atoms: _421  and  _423
REMARK  180  A    between atoms: _423  and  _424
REMARK  181  A    between atoms: _423  and  _426
REMARK  182  A    between atoms: _426  and  _427
REMARK  183  A    between atoms: _427  and  _428
REMARK  184  A    between atoms: _428  and  _429
REMARK  185  A    between atoms: _438  and  _440
REMARK  186  A    between atoms: _440  and  _441
REMARK  187  A    between atoms: _440  and  _443
REMARK  188  A    between atoms: _443  and  _444
REMARK  189  A    between atoms: _444  and  _445
REMARK  190  A    between atoms: _447  and  _449
REMARK  191  A    between atoms: _449  and  _450
REMARK  192  A    between atoms: _449  and  _452
REMARK  193  A    between atoms: _452  and  _453
REMARK  194  A    between atoms: _456  and  _458
REMARK  195  A    between atoms: _458  and  _459
REMARK  196  A    between atoms: _458  and  _461
REMARK  197  A    between atoms: _464  and  _466
REMARK  198  A    between atoms: _466  and  _467
REMARK  199  A    between atoms: _466  and  _469
REMARK  200  A    between atoms: _469  and  _470
REMARK  201  A    between atoms: _473  and  _475
REMARK  202  A    between atoms: _475  and  _476
REMARK  203  A    between atoms: _475  and  _478
REMARK  204  A    between atoms: _478  and  _479
REMARK  205  A    between atoms: _479  and  _480
REMARK  206  A    between atoms: _483  and  _485
REMARK  207  A    between atoms: _485  and  _486
REMARK  208  A    between atoms: _485  and  _488
REMARK  209  A    between atoms: _488  and  _489
REMARK  210  A    between atoms: _492  and  _494
REMARK  211  A    between atoms: _494  and  _495
REMARK  212  A    between atoms: _494  and  _497
REMARK  213  A    between atoms: _497  and  _498
REMARK  214  A    between atoms: _498  and  _499
REMARK  215  A    between atoms: _504  and  _506
REMARK  216  A    between atoms: _506  and  _507
REMARK  217  A    between atoms: _509  and  _511
REMARK  218  A    between atoms: _511  and  _512
REMARK  219  A    between atoms: _511  and  _514
REMARK  220  A    between atoms: _514  and  _515
REMARK  221  A    between atoms: _518  and  _520
REMARK  222  A    between atoms: _520  and  _521
REMARK  223  A    between atoms: _520  and  _523
REMARK  224  A    between atoms: _526  and  _528
REMARK  225  A    between atoms: _528  and  _529
REMARK  226  A    between atoms: _528  and  _531
REMARK  227  A    between atoms: _533  and  _535
REMARK  228  A    between atoms: _535  and  _536
REMARK  229  A    between atoms: _535  and  _538
REMARK  230  A    between atoms: _538  and  _539
REMARK  231  A    between atoms: _542  and  _544
REMARK  232  A    between atoms: _544  and  _545
REMARK  233  A    between atoms: _544  and  _547
REMARK  234  A    between atoms: _547  and  _548
REMARK  235  A    between atoms: _548  and  _549
REMARK  236  A    between atoms: _551  and  _553
REMARK  237  A    between atoms: _553  and  _554
REMARK  238  A    between atoms: _553  and  _556
REMARK  239  A    between atoms: _558  and  _560
REMARK  240  A    between atoms: _560  and  _561
REMARK  241  A    between atoms: _560  and  _563
REMARK  242  A    between atoms: _566  and  _568
REMARK  243  A    between atoms: _568  and  _569
REMARK  244  A    between atoms: _568  and  _571
REMARK  245  A    between atoms: _571  and  _572
REMARK  246  A    between atoms: _577  and  _579
REMARK  247  A    between atoms: _579  and  _580
REMARK  248  A    between atoms: _579  and  _582
REMARK  249  A    between atoms: _582  and  _583
REMARK  250  A    between atoms: _588  and  _589
REMARK                            x       y       z     vdW  Elec       q    Type
REMARK                         _______ _______ _______ _____ _____    ______ ____
ROOT
ATOM      1  CA  ILE A   1      26.406 -44.940   8.485  0.00  0.00    +0.133 C 
ENDROOT
BRANCH   1   2
ATOM      2  N   ILE A   1      26.491 -46.406   8.479  0.00  0.00    -0.239 NA
ATOM      3  H   ILE A   1      26.452 -46.922   9.381  0.00  0.00    +0.142 HD
ENDBRANCH   1   2
BRANCH   1   4
ATOM      4  C   ILE A   1      27.449 -44.309   9.427  0.00  0.00    +0.224 C 
ATOM      5  O   ILE A   1      27.755 -43.112   9.330  0.00  0.00    -0.287 OA
ENDBRANCH   1   4
BRANCH   1   6
ATOM      6  CB  ILE A   1      24.970 -44.520   8.876  0.00  0.00    +0.023 C 
ATOM      7  CG2 ILE A   1      24.759 -43.016   8.642  0.00  0.00    +0.002 C 
BRANCH   6   8
ATOM      8  CG1 ILE A   1      23.959 -45.328   8.043  0.00  0.00    +0.002 C 
ATOM      9  CD1 ILE A   1      22.562 -44.813   8.076  0.00  0.00    +0.000 C 
ENDBRANCH   6   8
ENDBRANCH   1   6
TORSDOF 4
REMARK  Name = ../refined-set-2016/4ghi/4ghi_pocket.pdb
REMARK  250 active torsions:
REMARK  status: ('A' for Active; 'I' for Inactive)
REMARK    1  A    between atoms: _1  and  _3
REMARK    2  A    between atoms: _3  and  _4
REMARK    3  A    between atoms: _3  and  _6
REMARK    4  A    between atoms: _6  and  _7
REMARK    5  A    between atoms: _13  and  _15
REMARK    6  A    between atoms: _15  and  _16
REMARK    7  A    between atoms: _15  and  _18
REMARK    8  A    between atoms: _18  and  _19
REMARK    9  A    between atoms: _22  and  _24
REMARK   10  A    between atoms: _24  and  _25
REMARK   11  A    between atoms: _24  and  _27
REMARK   12  A    between atoms: _27  and  _28
REMARK   13  A    between atoms: _30  and  _32
REMARK   14  A    between atoms: _32  and  _33
REMARK   15  A    between atoms: _32  and  _35
REMARK   16  A    between atoms: _35  and  _36
REMARK   17  A    between atoms: _36  and  _37
REMARK   18  A    between atoms: _40  and  _42
REMARK   19  A    between atoms: _42  and  _43
REMARK   20  A    between atoms: _42  and  _45
REMARK   21  A    between atoms: _45  and  _46
REMARK   22  A    between atoms: _51  and  _53
REMARK   23  A    between atoms: _53  and  _54
REMARK   24  A    between atoms: _53  and  _56
REMARK   25  A    between atoms: _56  and  _57
REMARK   26  A    between atoms: _59  and  _61
REMARK   27  A    between atoms: _61  and  _62
REMARK   28  A    between atoms: _61  and  _64
REMARK   29  A    between atoms: _64  and  _65
REMARK   30  A    between atoms: _65  and  _66
REMARK   31  A    between atoms: _68  and  _70
REMARK   32  A    between atoms: _70  and  _71
REMARK   33  A    between atoms: _70  and  _73
REMARK   34  A    between atoms: _73  and  _74
REMARK   35  A    between atoms: _77  and  _79
REMARK   36  A    between atoms: _79  and  _80
REMARK   37  A    between atoms: _79  and  _82
REMARK   38  A    between atoms: _82  and  _83
REMARK   39  A    between atoms: _83  and  _84
REMARK   40  A    between atoms: _86  and  _88
REMARK   41  A    between atoms: _88  and  _89
REMARK   42  A    between atoms: _88  and  _91
REMARK   43  A    between atoms: _91  and  _92
REMARK   44  A    between atoms: _92  and  _93
REMARK   45  A    between atoms: _93  and  _94
REMARK   46  A    between atoms: _94  and  _95
REMARK   47  A    between atoms: _99  and  _101
REMARK   48  A    between atoms: _101  and  _102
REMARK   49  A    between atoms: _101  and  _104
REMARK   50  A    between atoms: _104  and  _105
REMARK   51  A    between atoms: _111  and  _113
REMARK   52  A    between atoms: _113  and  _114
REMARK   53  A    between atoms: _113  and  _116
REMARK   54  A    between atoms: _116  and  _117
REMARK   55  A    between atoms: _120  and  _122
REMARK   56  A    between atoms: _122  and  _123
REMARK   57  A    between atoms: _122  and  _125
REMARK   58  A    between atoms: _125  and  _126
REMARK   59  A    between atoms: _131  and  _132
REMARK   60  A    between atoms: _134  and  _136
REMARK   61  A    between atoms: _136  and  _137
REMARK   62  A    between atoms: _136  and  _139
REMARK   63  A    between atoms: _141  and  _143
REMARK   64  A    between atoms: _143  and  _144
REMARK   65  A    between atoms: _143  and  _146
REMARK   66  A    between atoms: _146  and  _147
REMARK   67  A    between atoms: _150  and  _152
REMARK   68  A    between atoms: _152  and  _153
REMARK   69  A    between atoms: _152  and  _155
REMARK   70  A    between atoms: _155  and  _156
REMARK   71  A    between atoms: _159  and  _161
REMARK   72  A    between atoms: _161  and  _162
REMARK   73  A    between atoms: _161  and  _164
REMARK   74  A    between atoms: _164  and  _165
REMARK   75  A    between atoms: _168  and  _170
REMARK   76  A    between atoms: _170  and  _171
REMARK   77  A    between atoms: _170  and  _173
REMARK   78  A    between atoms: _173  and  _174
REMARK   79  A    between atoms: _179  and  _180
REMARK   80  A    between atoms: _182  and  _184
REMARK   81  A    between atoms: _184  and  _185
REMARK   82  A    between atoms: _184  and  _187
REMARK   83  A    between atoms: _187  and  _188
REMARK   84  A    between atoms: _191  and  _193
REMARK   85  A    between atoms: _193  and  _194
REMARK   86  A    between atoms: _193  and  _196
REMARK   87  A    between atoms: _196  and  _197
REMARK   88  A    between atoms: _199  and  _201
REMARK   89  A    between atoms: _201  and  _202
REMARK   90  A    between atoms: _205  and  _207
REMARK   91  A    between atoms: _207  and  _208
REMARK   92  A    between atoms: _207  and  _210
REMARK   93  A    between atoms: _210  and  _211
REMARK   94  A    between atoms: _216  and  _217
REMARK   95  A    between atoms: _219  and  _221
REMARK   96  A    between atoms: _221  and  _222
REMARK   97  A    between atoms: _221  and  _224
REMARK   98  A    between atoms: _224  and  _225
REMARK   99  A    between atoms: _225  and  _226
REMARK  100  A    between atoms: _229  and  _231
REMARK  101  A    between atoms: _231  and  _232
REMARK  102  A    between atoms: _231  and  _234
REMARK  103  A    between atoms: _234  and  _235
REMARK  104  A    between atoms: _241  and  _243
REMARK  105  A    between atoms: _243  and  _244
REMARK  106  A    between atoms: _243  and  _246
REMARK  107  A    between atoms: _246  and  _247
REMARK  108  A    between atoms: _252  and  _253
REMARK  109  A    between atoms: _255  and  _257
REMARK  110  A    between atoms: _257  and  _258
REMARK  111  A    between atoms: _257  and  _260
REMARK  112  A    between atoms: _260  and  _261
REMARK  113  A    between atoms: _266  and  _268
REMARK  114  A    between atoms: _268  and  _269
REMARK  115  A    between atoms: _268  and  _271
REMARK  116  A    between atoms: _271  and  _272
REMARK  117  A    between atoms: _277  and  _279
REMARK  118  A    between atoms: _279  and  _280
REMARK  119  A    between atoms: _279  and  _282
REMARK  120  A    between atoms: _282  and  _283
REMARK  121  A    between atoms: _283  and  _284
REMARK  122  A    between atoms: _286  and  _288
REMARK  123  A    between atoms: _288  and  _289
REMARK  124  A    between atoms: _288  and  _291
REMARK  125  A    between atoms: _291  and  _292
REMARK  126  A    between atoms: _295  and  _297
REMARK  127  A    between atoms: _297  and  _298
REMARK  128  A    between atoms: _297  and  _300
REMARK  129  A    between atoms: _300  and  _301
REMARK  130  A    between atoms: _301  and  _302
REMARK  131  A    between atoms: _302  and  _303
REMARK  132  A    between atoms: _303  and  _304
REMARK  133  A    between atoms: _308  and  _310
REMARK  134  A    between atoms: _310  and  _311
REMARK  135  A    between atoms: _310  and  _313
REMARK  136  A    between atoms: _313  and  _314
REMARK  137  A    between atoms: _316  and  _318
REMARK  138  A    between atoms: _318  and  _319
REMARK  139  A    between atoms: _318  and  _321
REMARK  140  A    between atoms: _321  and  _322
REMARK  141  A    between atoms: _327  and  _329
REMARK  142  A    between atoms: _329  and  _330
REMARK  143  A    between atoms: _329  and  _332
REMARK  144  A    between atoms: _332  and  _333
REMARK  145  A    between atoms: _333  and  _334
REMARK  146  A    between atoms: _339  and  _341
REMARK  147  A    between atoms: _341  and  _342
REMARK  148  A    between atoms: _341  and  _344
REMARK  149  A    between atoms: _344  and  _345
REMARK  150  A    between atoms: _350  and  _352
REMARK  151  A    between atoms: _352  and  _353
REMARK  152  A    between atoms: _352  and  _355
REMARK  153  A    between atoms: _355  and  _356
REMARK  154  A    between atoms: _359  and  _361
REMARK  155  A    between atoms: _361  and  _362
REMARK  156  A    between atoms: _361  and  _364
REMARK  157  A    between atoms: _366  and  _368
REMARK  158  A    between atoms: _368  and  _369
REMARK  159  A    between atoms: _368  and  _371
REMARK  160  A    between atoms: _371  and  _372
REMARK  161  A    between atoms: _372  and  _373
REMARK  162  A    between atoms: _378  and  _380
REMARK  163  A    between atoms: _380  and  _381
REMARK  164  A    between atoms: _380  and  _383
REMARK  165  A    between atoms: _386  and  _388
REMARK  166  A    between atoms: _388  and  _389
REMARK  167  A    between atoms: _388  and  _391
REMARK  168  A    between atoms: _394  and  _396
REMARK  169  A    between atoms: _396  and  _397
REMARK  170  A    between atoms: _396  and  _399
REMARK  171  A    between atoms: _399  and  _400
REMARK  172  A    between atoms: _402  and  _404
REMARK  173  A    between atoms: _404  and  _405
REMARK  174  A    between atoms: _407  and  _409
REMARK  175  A    between atoms: _409  and  _410
REMARK  176  A    between atoms: _409  and  _412
REMARK  177  A    between atoms: _412  and  _413
REMARK  178  A    between atoms: _418  and  _419
REMARK  179  A    between atoms: _421  and  _423
REMARK  180  A    between atoms: _423  and  _424
REMARK  181  A    between atoms: _423  and  _426
REMARK  182  A    between atoms: _426  and  _427
REMARK  183  A    between atoms: _427  and  _428
REMARK  184  A    between atoms: _428  and  _429
REMARK  185  A    between atoms: _438  and  _440
REMARK  186  A    between atoms: _440  and  _441
REMARK  187  A    between atoms: _440  and  _443
REMARK  188  A    between atoms: _443  and  _444
REMARK  189  A    between atoms: _444  and  _445
REMARK  190  A    between atoms: _447  and  _449
REMARK  191  A    between atoms: _449  and  _450
REMARK  192  A    between atoms: _449  and  _452
REMARK  193  A    between atoms: _452  and  _453
REMARK  194  A    between atoms: _456  and  _458
REMARK  195  A    between atoms: _458  and  _459
REMARK  196  A    between atoms: _458  and  _461
REMARK  197  A    between atoms: _464  and  _466
REMARK  198  A    between atoms: _466  and  _467
REMARK  199  A    between atoms: _466  and  _469
REMARK  200  A    between atoms: _469  and  _470
REMARK  201  A    between atoms: _473  and  _475
REMARK  202  A    between atoms: _475  and  _476
REMARK  203  A    between atoms: _475  and  _478
REMARK  204  A    between atoms: _478  and  _479
REMARK  205  A    between atoms: _479  and  _480
REMARK  206  A    between atoms: _483  and  _485
REMARK  207  A    between atoms: _485  and  _486
REMARK  208  A    between atoms: _485  and  _488
REMARK  209  A    between atoms: _488  and  _489
REMARK  210  A    between atoms: _492  and  _494
REMARK  211  A    between atoms: _494  and  _495
REMARK  212  A    between atoms: _494  and  _497
REMARK  213  A    between atoms: _497  and  _498
REMARK  214  A    between atoms: _498  and  _499
REMARK  215  A    between atoms: _504  and  _506
REMARK  216  A    between atoms: _506  and  _507
REMARK  217  A    between atoms: _509  and  _511
REMARK  218  A    between atoms: _511  and  _512
REMARK  219  A    between atoms: _511  and  _514
REMARK  220  A    between atoms: _514  and  _515
REMARK  221  A    between atoms: _518  and  _520
REMARK  222  A    between atoms: _520  and  _521
REMARK  223  A    between atoms: _520  and  _523
REMARK  224  A    between atoms: _526  and  _528
REMARK  225  A    between atoms: _528  and  _529
REMARK  226  A    between atoms: _528  and  _531
REMARK  227  A    between atoms: _533  and  _535
REMARK  228  A    between atoms: _535  and  _536
REMARK  229  A    between atoms: _535  and  _538
REMARK  230  A    between atoms: _538  and  _539
REMARK  231  A    between atoms: _542  and  _544
REMARK  232  A    between atoms: _544  and  _545
REMARK  233  A    between atoms: _544  and  _547
REMARK  234  A    between atoms: _547  and  _548
REMARK  235  A    between atoms: _548  and  _549
REMARK  236  A    between atoms: _551  and  _553
REMARK  237  A    between atoms: _553  and  _554
REMARK  238  A    between atoms: _553  and  _556
REMARK  239  A    between atoms: _558  and  _560
REMARK  240  A    between atoms: _560  and  _561
REMARK  241  A    between atoms: _560  and  _563
REMARK  242  A    between atoms: _566  and  _568
REMARK  243  A    between atoms: _568  and  _569
REMARK  244  A    between atoms: _568  and  _571
REMARK  245  A    between atoms: _571  and  _572
REMARK  246  A    between atoms: _577  and  _579
REMARK  247  A    between atoms: _579  and  _580
REMARK  248  A    between atoms: _579  and  _582
REMARK  249  A    between atoms: _582  and  _583
REMARK  250  A    between atoms: _588  and  _589
REMARK                            x       y       z     vdW  Elec       q    Type
REMARK                         _______ _______ _______ _____ _____    ______ ____
ROOT
ATOM      1  CG  TYR A   1      25.615 -41.978  13.476  0.00  0.00    -0.020 A 
ATOM      2  CD2 TYR A   1      26.252 -40.799  13.886  0.00  0.00    -0.001 A 
ATOM      3  CE2 TYR A   1      26.163 -39.641  13.127  0.00  0.00    +0.036 A 
ATOM      4  CZ  TYR A   1      25.445 -39.659  11.949  0.00  0.00    +0.134 A 
ATOM      5  CE1 TYR A   1      24.813 -40.820  11.520  0.00  0.00    +0.036 A 
ATOM      6  CD1 TYR A   1      24.894 -41.970  12.283  0.00  0.00    -0.001 A 
ENDROOT
BRANCH   4   7
ATOM      7  OH  TYR A   1      25.387 -38.500  11.187  0.00  0.00    -0.506 OA
ATOM      8  HH  TYR A   1      25.788 -38.670  10.298  0.00  0.00    +0.292 HD
ENDBRANCH   4   7
BRANCH   1   9
ATOM      9  CB  TYR A   1      25.729 -43.220  14.302  0.00  0.00    +0.051 C 
BRANCH   9  10
ATOM     10  CA  TYR A   1      27.135 -43.808  14.282  0.00  0.00    +0.137 C 
BRANCH  10  11
ATOM     11  N   TYR A   1      27.524 -44.170  12.928  0.00  0.00    -0.239 NA
ATOM     12  H   TYR A   1      26.798 -44.231  12.186  0.00  0.00    +0.142 HD
ENDBRANCH  10  11
BRANCH  10  13
ATOM     13  C   TYR A   1      27.127 -44.990  15.228  0.00  0.00    +0.224 C 
ATOM     14  O   TYR A   1      26.741 -46.088  14.838  0.00  0.00    -0.287 OA
ENDBRANCH  10  13
ENDBRANCH   9  10
ENDBRANCH   1   9
TORSDOF 5
REMARK  Name = ../refined-set-2016/4ghi/4ghi_pocket.pdb
REMARK  250 active torsions:
REMARK  status: ('A' for Active; 'I' for Inactive)
REMARK    1  A    between atoms: _1  and  _3
REMARK    2  A    between atoms: _3  and  _4
REMARK    3  A    between atoms: _3  and  _6
REMARK    4  A    between atoms: _6  and  _7
REMARK    5  A    between atoms: _13  and  _15
REMARK    6  A    between atoms: _15  and  _16
REMARK    7  A    between atoms: _15  and  _18
REMARK    8  A    between atoms: _18  and  _19
REMARK    9  A    between atoms: _22  and  _24
REMARK   10  A    between atoms: _24  and  _25
REMARK   11  A    between atoms: _24  and  _27
REMARK   12  A    between atoms: _27  and  _28
REMARK   13  A    between atoms: _30  and  _32
REMARK   14  A    between atoms: _32  and  _33
REMARK   15  A    between atoms: _32  and  _35
REMARK   16  A    between atoms: _35  and  _36
REMARK   17  A    between atoms: _36  and  _37
REMARK   18  A    between atoms: _40  and  _42
REMARK   19  A    between atoms: _42  and  _43
REMARK   20  A    between atoms: _42  and  _45
REMARK   21  A    between atoms: _45  and  _46
REMARK   22  A    between atoms: _51  and  _53
REMARK   23  A    between atoms: _53  and  _54
REMARK   24  A    between atoms: _53  and  _56
REMARK   25  A    between atoms: _56  and  _57
REMARK   26  A    between atoms: _59  and  _61
REMARK   27  A    between atoms: _61  and  _62
REMARK   28  A    between atoms: _61  and  _64
REMARK   29  A    between atoms: _64  and  _65
REMARK   30  A    between atoms: _65  and  _66
REMARK   31  A    between atoms: _68  and  _70
REMARK   32  A    between atoms: _70  and  _71
REMARK   33  A    between atoms: _70  and  _73
REMARK   34  A    between atoms: _73  and  _74
REMARK   35  A    between atoms: _77  and  _79
REMARK   36  A    between atoms: _79  and  _80
REMARK   37  A    between atoms: _79  and  _82
REMARK   38  A    between atoms: _82  and  _83
REMARK   39  A    between atoms: _83  and  _84
REMARK   40  A    between atoms: _86  and  _88
REMARK   41  A    between atoms: _88  and  _89
REMARK   42  A    between atoms: _88  and  _91
REMARK   43  A    between atoms: _91  and  _92
REMARK   44  A    between atoms: _92  and  _93
REMARK   45  A    between atoms: _93  and  _94
REMARK   46  A    between atoms: _94  and  _95
REMARK   47  A    between atoms: _99  and  _101
REMARK   48  A    between atoms: _101  and  _102
REMARK   49  A    between atoms: _101  and  _104
REMARK   50  A    between atoms: _104  and  _105
REMARK   51  A    between atoms: _111  and  _113
REMARK   52  A    between atoms: _113  and  _114
REMARK   53  A    between atoms: _113  and  _116
REMARK   54  A    between atoms: _116  and  _117
REMARK   55  A    between atoms: _120  and  _122
REMARK   56  A    between atoms: _122  and  _123
REMARK   57  A    between atoms: _122  and  _125
REMARK   58  A    between atoms: _125  and  _126
REMARK   59  A    between atoms: _131  and  _132
REMARK   60  A    between atoms: _134  and  _136
REMARK   61  A    between atoms: _136  and  _137
REMARK   62  A    between atoms: _136  and  _139
REMARK   63  A    between atoms: _141  and  _143
REMARK   64  A    between atoms: _143  and  _144
REMARK   65  A    between atoms: _143  and  _146
REMARK   66  A    between atoms: _146  and  _147
REMARK   67  A    between atoms: _150  and  _152
REMARK   68  A    between atoms: _152  and  _153
REMARK   69  A    between atoms: _152  and  _155
REMARK   70  A    between atoms: _155  and  _156
REMARK   71  A    between atoms: _159  and  _161
REMARK   72  A    between atoms: _161  and  _162
REMARK   73  A    between atoms: _161  and  _164
REMARK   74  A    between atoms: _164  and  _165
REMARK   75  A    between atoms: _168  and  _170
REMARK   76  A    between atoms: _170  and  _171
REMARK   77  A    between atoms: _170  and  _173
REMARK   78  A    between atoms: _173  and  _174
REMARK   79  A    between atoms: _179  and  _180
REMARK   80  A    between atoms: _182  and  _184
REMARK   81  A    between atoms: _184  and  _185
REMARK   82  A    between atoms: _184  and  _187
REMARK   83  A    between atoms: _187  and  _188
REMARK   84  A    between atoms: _191  and  _193
REMARK   85  A    between atoms: _193  and  _194
REMARK   86  A    between atoms: _193  and  _196
REMARK   87  A    between atoms: _196  and  _197
REMARK   88  A    between atoms: _199  and  _201
REMARK   89  A    between atoms: _201  and  _202
REMARK   90  A    between atoms: _205  and  _207
REMARK   91  A    between atoms: _207  and  _208
REMARK   92  A    between atoms: _207  and  _210
REMARK   93  A    between atoms: _210  and  _211
REMARK   94  A    between atoms: _216  and  _217
REMARK   95  A    between atoms: _219  and  _221
REMARK   96  A    between atoms: _221  and  _222
REMARK   97  A    between atoms: _221  and  _224
REMARK   98  A    between atoms: _224  and  _225
REMARK   99  A    between atoms: _225  and  _226
REMARK  100  A    between atoms: _229  and  _231
REMARK  101  A    between atoms: _231  and  _232
REMARK  102  A    between atoms: _231  and  _234
REMARK  103  A    between atoms: _234  and  _235
REMARK  104  A    between atoms: _241  and  _243
REMARK  105  A    between atoms: _243  and  _244
REMARK  106  A    between atoms: _243  and  _246
REMARK  107  A    between atoms: _246  and  _247
REMARK  108  A    between atoms: _252  and  _253
REMARK  109  A    between atoms: _255  and  _257
REMARK  110  A    between atoms: _257  and  _258
REMARK  111  A    between atoms: _257  and  _260
REMARK  112  A    between atoms: _260  and  _261
REMARK  113  A    between atoms: _266  and  _268
REMARK  114  A    between atoms: _268  and  _269
REMARK  115  A    between atoms: _268  and  _271
REMARK  116  A    between atoms: _271  and  _272
REMARK  117  A    between atoms: _277  and  _279
REMARK  118  A    between atoms: _279  and  _280
REMARK  119  A    between atoms: _279  and  _282
REMARK  120  A    between atoms: _282  and  _283
REMARK  121  A    between atoms: _283  and  _284
REMARK  122  A    between atoms: _286  and  _288
REMARK  123  A    between atoms: _288  and  _289
REMARK  124  A    between atoms: _288  and  _291
REMARK  125  A    between atoms: _291  and  _292
REMARK  126  A    between atoms: _295  and  _297
REMARK  127  A    between atoms: _297  and  _298
REMARK  128  A    between atoms: _297  and  _300
REMARK  129  A    between atoms: _300  and  _301
REMARK  130  A    between atoms: _301  and  _302
REMARK  131  A    between atoms: _302  and  _303
REMARK  132  A    between atoms: _303  and  _304
REMARK  133  A    between atoms: _308  and  _310
REMARK  134  A    between atoms: _310  and  _311
REMARK  135  A    between atoms: _310  and  _313
REMARK  136  A    between atoms: _313  and  _314
REMARK  137  A    between atoms: _316  and  _318
REMARK  138  A    between atoms: _318  and  _319
REMARK  139  A    between atoms: _318  and  _321
REMARK  140  A    between atoms: _321  and  _322
REMARK  141  A    between atoms: _327  and  _329
REMARK  142  A    between atoms: _329  and  _330
REMARK  143  A    between atoms: _329  and  _332
REMARK  144  A    between atoms: _332  and  _333
REMARK  145  A    between atoms: _333  and  _334
REMARK  146  A    between atoms: _339  and  _341
REMARK  147  A    between atoms: _341  and  _342
REMARK  148  A    between atoms: _341  and  _344
REMARK  149  A    between atoms: _344  and  _345
REMARK  150  A    between atoms: _350  and  _352
REMARK  151  A    between atoms: _352  and  _353
REMARK  152  A    between atoms: _352  and  _355
REMARK  153  A    between atoms: _355  and  _356
REMARK  154  A    between atoms: _359  and  _361
REMARK  155  A    between atoms: _361  and  _362
REMARK  156  A    between atoms: _361  and  _364
REMARK  157  A    between atoms: _366  and  _368
REMARK  158  A    between atoms: _368  and  _369
REMARK  159  A    between atoms: _368  and  _371
REMARK  160  A    between atoms: _371  and  _372
REMARK  161  A    between atoms: _372  and  _373
REMARK  162  A    between atoms: _378  and  _380
REMARK  163  A    between atoms: _380  and  _381
REMARK  164  A    between atoms: _380  and  _383
REMARK  165  A    between atoms: _386  and  _388
REMARK  166  A    between atoms: _388  and  _389
REMARK  167  A    between atoms: _388  and  _391
REMARK  168  A    between atoms: _394  and  _396
REMARK  169  A    between atoms: _396  and  _397
REMARK  170  A    between atoms: _396  and  _399
REMARK  171  A    between atoms: _399  and  _400
REMARK  172  A    between atoms: _402  and  _404
REMARK  173  A    between atoms: _404  and  _405
REMARK  174  A    between atoms: _407  and  _409
REMARK  175  A    between atoms: _409  and  _410
REMARK  176  A    between atoms: _409  and  _412
REMARK  177  A    between atoms: _412  and  _413
REMARK  178  A    between atoms: _418  and  _419
REMARK  179  A    between atoms: _421  and  _423
REMARK  180  A    between atoms: _423  and  _424
REMARK  181  A    between atoms: _423  and  _426
REMARK  182  A    between atoms: _426  and  _427
REMARK  183  A    between atoms: _427  and  _428
REMARK  184  A    between atoms: _428  and  _429
REMARK  185  A    between atoms: _438  and  _440
REMARK  186  A    between atoms: _440  and  _441
REMARK  187  A    between atoms: _440  and  _443
REMARK  188  A    between atoms: _443  and  _444
REMARK  189  A    between atoms: _444  and  _445
REMARK  190  A    between atoms: _447  and  _449
REMARK  191  A    between atoms: _449  and  _450
REMARK  192  A    between atoms: _449  and  _452
REMARK  193  A    between atoms: _452  and  _453
REMARK  194  A    between atoms: _456  and  _458
REMARK  195  A    between atoms: _458  and  _459
REMARK  196  A    between atoms: _458  and  _461
REMARK  197  A    between atoms: _464  and  _466
REMARK  198  A    between atoms: _466  and  _467
REMARK  199  A    between atoms: _466  and  _469
REMARK  200  A    between atoms: _469  and  _470
REMARK  201  A    between atoms: _473  and  _475
REMARK  202  A    between atoms: _475  and  _476
REMARK  203  A    between atoms: _475  and  _478
REMARK  204  A    between atoms: _478  and  _479
REMARK  205  A    between atoms: _479  and  _480
REMARK  206  A    between atoms: _483  and  _485
REMARK  207  A    between atoms: _485  and  _486
REMARK  208  A    between atoms: _485  and  _488
REMARK  209  A    between atoms: _488  and  _489
REMARK  210  A    between atoms: _492  and  _494
REMARK  211  A    between atoms: _494  and  _495
REMARK  212  A    between atoms: _494  and  _497
REMARK  213  A    between atoms: _497  and  _498
REMARK  214  A    between atoms: _498  and  _499
REMARK  215  A    between atoms: _504  and  _506
REMARK  216  A    between atoms: _506  and  _507
REMARK  217  A    between atoms: _509  and  _511
REMARK  218  A    between atoms: _511  and  _512
REMARK  219  A    between atoms: _511  and  _514
REMARK  220  A    between atoms: _514  and  _515
REMARK  221  A    between atoms: _518  and  _520
REMARK  222  A    between atoms: _520  and  _521
REMARK  223  A    between atoms: _520  and  _523
REMARK  224  A    between atoms: _526  and  _528
REMARK  225  A    between atoms: _528  and  _529
REMARK  226  A    between atoms: _528  and  _531
REMARK  227  A    between atoms: _533  and  _535
REMARK  228  A    between atoms: _535  and  _536
REMARK  229  A    between atoms: _535  and  _538
REMARK  230  A    between atoms: _538  and  _539
REMARK  231  A    between atoms: _542  and  _544
REMARK  232  A    between atoms: _544  and  _545
REMARK  233  A    between atoms: _544  and  _547
REMARK  234  A    between atoms: _547  and  _548
REMARK  235  A    between atoms: _548  and  _549
REMARK  236  A    between atoms: _551  and  _553
REMARK  237  A    between atoms: _553  and  _554
REMARK  238  A    between atoms: _553  and  _556
REMARK  239  A    between atoms: _558  and  _560
REMARK  240  A    between atoms: _560  and  _561
REMARK  241  A    between atoms: _560  and  _563
REMARK  242  A    between atoms: _566  and  _568
REMARK  243  A    between atoms: _568  and  _569
REMARK  244  A    between atoms: _568  and  _571
REMARK  245  A    between atoms: _571  and  _572
REMARK  246  A    between atoms: _577  and  _579
REMARK  247  A    between atoms: _579  and  _580
REMARK  248  A    between atoms: _579  and  _582
REMARK  249  A    between atoms: _582  and  _583
REMARK  250  A    between atoms: _588  and  _589
REMARK                            x       y       z     vdW  Elec       q    Type
REMARK                         _______ _______ _______ _____ _____    ______ ____
ROOT
ATOM      1  CA  LEU A   1      22.000 -40.860  18.526  0.00  0.00    +0.133 C 
ENDROOT
BRANCH   1   2
ATOM      2  N   LEU A   1      23.211 -41.334  19.176  0.00  0.00    -0.239 NA
ATOM      3  H   LEU A   1      23.361 -42.356  19.295  0.00  0.00    +0.142 HD
ENDBRANCH   1   2
BRANCH   1   4
ATOM      4  C   LEU A   1      20.899 -40.589  19.525  0.00  0.00    +0.224 C 
ATOM      5  O   LEU A   1      19.990 -39.780  19.263  0.00  0.00    -0.287 OA
ENDBRANCH   1   4
BRANCH   1   6
ATOM      6  CB  LEU A   1      21.530 -41.910  17.522  0.00  0.00    +0.025 C 
BRANCH   6   7
ATOM      7  CG  LEU A   1      22.462 -42.225  16.367  0.00  0.00    +0.002 C 
ATOM      8  CD2 LEU A   1      21.850 -43.361  15.560  0.00  0.00    +0.000 C 
ATOM      9  CD1 LEU A   1      22.684 -41.000  15.483  0.00  0.00    +0.000 C 
ENDBRANCH   6   7
ENDBRANCH   1   6
TORSDOF 4
REMARK  Name = ../refined-set-2016/4ghi/4ghi_pocket.pdb
REMARK  250 active torsions:
REMARK  status: ('A' for Active; 'I' for Inactive)
REMARK    1  A    between atoms: _1  and  _3
REMARK    2  A    between atoms: _3  and  _4
REMARK    3  A    between atoms: _3  and  _6
REMARK    4  A    between atoms: _6  and  _7
REMARK    5  A    between atoms: _13  and  _15
REMARK    6  A    between atoms: _15  and  _16
REMARK    7  A    between atoms: _15  and  _18
REMARK    8  A    between atoms: _18  and  _19
REMARK    9  A    between atoms: _22  and  _24
REMARK   10  A    between atoms: _24  and  _25
REMARK   11  A    between atoms: _24  and  _27
REMARK   12  A    between atoms: _27  and  _28
REMARK   13  A    between atoms: _30  and  _32
REMARK   14  A    between atoms: _32  and  _33
REMARK   15  A    between atoms: _32  and  _35
REMARK   16  A    between atoms: _35  and  _36
REMARK   17  A    between atoms: _36  and  _37
REMARK   18  A    between atoms: _40  and  _42
REMARK   19  A    between atoms: _42  and  _43
REMARK   20  A    between atoms: _42  and  _45
REMARK   21  A    between atoms: _45  and  _46
REMARK   22  A    between atoms: _51  and  _53
REMARK   23  A    between atoms: _53  and  _54
REMARK   24  A    between atoms: _53  and  _56
REMARK   25  A    between atoms: _56  and  _57
REMARK   26  A    between atoms: _59  and  _61
REMARK   27  A    between atoms: _61  and  _62
REMARK   28  A    between atoms: _61  and  _64
REMARK   29  A    between atoms: _64  and  _65
REMARK   30  A    between atoms: _65  and  _66
REMARK   31  A    between atoms: _68  and  _70
REMARK   32  A    between atoms: _70  and  _71
REMARK   33  A    between atoms: _70  and  _73
REMARK   34  A    between atoms: _73  and  _74
REMARK   35  A    between atoms: _77  and  _79
REMARK   36  A    between atoms: _79  and  _80
REMARK   37  A    between atoms: _79  and  _82
REMARK   38  A    between atoms: _82  and  _83
REMARK   39  A    between atoms: _83  and  _84
REMARK   40  A    between atoms: _86  and  _88
REMARK   41  A    between atoms: _88  and  _89
REMARK   42  A    between atoms: _88  and  _91
REMARK   43  A    between atoms: _91  and  _92
REMARK   44  A    between atoms: _92  and  _93
REMARK   45  A    between atoms: _93  and  _94
REMARK   46  A    between atoms: _94  and  _95
REMARK   47  A    between atoms: _99  and  _101
REMARK   48  A    between atoms: _101  and  _102
REMARK   49  A    between atoms: _101  and  _104
REMARK   50  A    between atoms: _104  and  _105
REMARK   51  A    between atoms: _111  and  _113
REMARK   52  A    between atoms: _113  and  _114
REMARK   53  A    between atoms: _113  and  _116
REMARK   54  A    between atoms: _116  and  _117
REMARK   55  A    between atoms: _120  and  _122
REMARK   56  A    between atoms: _122  and  _123
REMARK   57  A    between atoms: _122  and  _125
REMARK   58  A    between atoms: _125  and  _126
REMARK   59  A    between atoms: _131  and  _132
REMARK   60  A    between atoms: _134  and  _136
REMARK   61  A    between atoms: _136  and  _137
REMARK   62  A    between atoms: _136  and  _139
REMARK   63  A    between atoms: _141  and  _143
REMARK   64  A    between atoms: _143  and  _144
REMARK   65  A    between atoms: _143  and  _146
REMARK   66  A    between atoms: _146  and  _147
REMARK   67  A    between atoms: _150  and  _152
REMARK   68  A    between atoms: _152  and  _153
REMARK   69  A    between atoms: _152  and  _155
REMARK   70  A    between atoms: _155  and  _156
REMARK   71  A    between atoms: _159  and  _161
REMARK   72  A    between atoms: _161  and  _162
REMARK   73  A    between atoms: _161  and  _164
REMARK   74  A    between atoms: _164  and  _165
REMARK   75  A    between atoms: _168  and  _170
REMARK   76  A    between atoms: _170  and  _171
REMARK   77  A    between atoms: _170  and  _173
REMARK   78  A    between atoms: _173  and  _174
REMARK   79  A    between atoms: _179  and  _180
REMARK   80  A    between atoms: _182  and  _184
REMARK   81  A    between atoms: _184  and  _185
REMARK   82  A    between atoms: _184  and  _187
REMARK   83  A    between atoms: _187  and  _188
REMARK   84  A    between atoms: _191  and  _193
REMARK   85  A    between atoms: _193  and  _194
REMARK   86  A    between atoms: _193  and  _196
REMARK   87  A    between atoms: _196  and  _197
REMARK   88  A    between atoms: _199  and  _201
REMARK   89  A    between atoms: _201  and  _202
REMARK   90  A    between atoms: _205  and  _207
REMARK   91  A    between atoms: _207  and  _208
REMARK   92  A    between atoms: _207  and  _210
REMARK   93  A    between atoms: _210  and  _211
REMARK   94  A    between atoms: _216  and  _217
REMARK   95  A    between atoms: _219  and  _221
REMARK   96  A    between atoms: _221  and  _222
REMARK   97  A    between atoms: _221  and  _224
REMARK   98  A    between atoms: _224  and  _225
REMARK   99  A    between atoms: _225  and  _226
REMARK  100  A    between atoms: _229  and  _231
REMARK  101  A    between atoms: _231  and  _232
REMARK  102  A    between atoms: _231  and  _234
REMARK  103  A    between atoms: _234  and  _235
REMARK  104  A    between atoms: _241  and  _243
REMARK  105  A    between atoms: _243  and  _244
REMARK  106  A    between atoms: _243  and  _246
REMARK  107  A    between atoms: _246  and  _247
REMARK  108  A    between atoms: _252  and  _253
REMARK  109  A    between atoms: _255  and  _257
REMARK  110  A    between atoms: _257  and  _258
REMARK  111  A    between atoms: _257  and  _260
REMARK  112  A    between atoms: _260  and  _261
REMARK  113  A    between atoms: _266  and  _268
REMARK  114  A    between atoms: _268  and  _269
REMARK  115  A    between atoms: _268  and  _271
REMARK  116  A    between atoms: _271  and  _272
REMARK  117  A    between atoms: _277  and  _279
REMARK  118  A    between atoms: _279  and  _280
REMARK  119  A    between atoms: _279  and  _282
REMARK  120  A    between atoms: _282  and  _283
REMARK  121  A    between atoms: _283  and  _284
REMARK  122  A    between atoms: _286  and  _288
REMARK  123  A    between atoms: _288  and  _289
REMARK  124  A    between atoms: _288  and  _291
REMARK  125  A    between atoms: _291  and  _292
REMARK  126  A    between atoms: _295  and  _297
REMARK  127  A    between atoms: _297  and  _298
REMARK  128  A    between atoms: _297  and  _300
REMARK  129  A    between atoms: _300  and  _301
REMARK  130  A    between atoms: _301  and  _302
REMARK  131  A    between atoms: _302  and  _303
REMARK  132  A    between atoms: _303  and  _304
REMARK  133  A    between atoms: _308  and  _310
REMARK  134  A    between atoms: _310  and  _311
REMARK  135  A    between atoms: _310  and  _313
REMARK  136  A    between atoms: _313  and  _314
REMARK  137  A    between atoms: _316  and  _318
REMARK  138  A    between atoms: _318  and  _319
REMARK  139  A    between atoms: _318  and  _321
REMARK  140  A    between atoms: _321  and  _322
REMARK  141  A    between atoms: _327  and  _329
REMARK  142  A    between atoms: _329  and  _330
REMARK  143  A    between atoms: _329  and  _332
REMARK  144  A    between atoms: _332  and  _333
REMARK  145  A    between atoms: _333  and  _334
REMARK  146  A    between atoms: _339  and  _341
REMARK  147  A    between atoms: _341  and  _342
REMARK  148  A    between atoms: _341  and  _344
REMARK  149  A    between atoms: _344  and  _345
REMARK  150  A    between atoms: _350  and  _352
REMARK  151  A    between atoms: _352  and  _353
REMARK  152  A    between atoms: _352  and  _355
REMARK  153  A    between atoms: _355  and  _356
REMARK  154  A    between atoms: _359  and  _361
REMARK  155  A    between atoms: _361  and  _362
REMARK  156  A    between atoms: _361  and  _364
REMARK  157  A    between atoms: _366  and  _368
REMARK  158  A    between atoms: _368  and  _369
REMARK  159  A    between atoms: _368  and  _371
REMARK  160  A    between atoms: _371  and  _372
REMARK  161  A    between atoms: _372  and  _373
REMARK  162  A    between atoms: _378  and  _380
REMARK  163  A    between atoms: _380  and  _381
REMARK  164  A    between atoms: _380  and  _383
REMARK  165  A    between atoms: _386  and  _388
REMARK  166  A    between atoms: _388  and  _389
REMARK  167  A    between atoms: _388  and  _391
REMARK  168  A    between atoms: _394  and  _396
REMARK  169  A    between atoms: _396  and  _397
REMARK  170  A    between atoms: _396  and  _399
REMARK  171  A    between atoms: _399  and  _400
REMARK  172  A    between atoms: _402  and  _404
REMARK  173  A    between atoms: _404  and  _405
REMARK  174  A    between atoms: _407  and  _409
REMARK  175  A    between atoms: _409  and  _410
REMARK  176  A    between atoms: _409  and  _412
REMARK  177  A    between atoms: _412  and  _413
REMARK  178  A    between atoms: _418  and  _419
REMARK  179  A    between atoms: _421  and  _423
REMARK  180  A    between atoms: _423  and  _424
REMARK  181  A    between atoms: _423  and  _426
REMARK  182  A    between atoms: _426  and  _427
REMARK  183  A    between atoms: _427  and  _428
REMARK  184  A    between atoms: _428  and  _429
REMARK  185  A    between atoms: _438  and  _440
REMARK  186  A    between atoms: _440  and  _441
REMARK  187  A    between atoms: _440  and  _443
REMARK  188  A    between atoms: _443  and  _444
REMARK  189  A    between atoms: _444  and  _445
REMARK  190  A    between atoms: _447  and  _449
REMARK  191  A    between atoms: _449  and  _450
REMARK  192  A    between atoms: _449  and  _452
REMARK  193  A    between atoms: _452  and  _453
REMARK  194  A    between atoms: _456  and  _458
REMARK  195  A    between atoms: _458  and  _459
REMARK  196  A    between atoms: _458  and  _461
REMARK  197  A    between atoms: _464  and  _466
REMARK  198  A    between atoms: _466  and  _467
REMARK  199  A    between atoms: _466  and  _469
REMARK  200  A    between atoms: _469  and  _470
REMARK  201  A    between atoms: _473  and  _475
REMARK  202  A    between atoms: _475  and  _476
REMARK  203  A    between atoms: _475  and  _478
REMARK  204  A    between atoms: _478  and  _479
REMARK  205  A    between atoms: _479  and  _480
REMARK  206  A    between atoms: _483  and  _485
REMARK  207  A    between atoms: _485  and  _486
REMARK  208  A    between atoms: _485  and  _488
REMARK  209  A    between atoms: _488  and  _489
REMARK  210  A    between atoms: _492  and  _494
REMARK  211  A    between atoms: _494  and  _495
REMARK  212  A    between atoms: _494  and  _497
REMARK  213  A    between atoms: _497  and  _498
REMARK  214  A    between atoms: _498  and  _499
REMARK  215  A    between atoms: _504  and  _506
REMARK  216  A    between atoms: _506  and  _507
REMARK  217  A    between atoms: _509  and  _511
REMARK  218  A    between atoms: _511  and  _512
REMARK  219  A    between atoms: _511  and  _514
REMARK  220  A    between atoms: _514  and  _515
REMARK  221  A    between atoms: _518  and  _520
REMARK  222  A    between atoms: _520  and  _521
REMARK  223  A    between atoms: _520  and  _523
REMARK  224  A    between atoms: _526  and  _528
REMARK  225  A    between atoms: _528  and  _529
REMARK  226  A    between atoms: _528  and  _531
REMARK  227  A    between atoms: _533  and  _535
REMARK  228  A    between atoms: _535  and  _536
REMARK  229  A    between atoms: _535  and  _538
REMARK  230  A    between atoms: _538  and  _539
REMARK  231  A    between atoms: _542  and  _544
REMARK  232  A    between atoms: _544  and  _545
REMARK  233  A    between atoms: _544  and  _547
REMARK  234  A    between atoms: _547  and  _548
REMARK  235  A    between atoms: _548  and  _549
REMARK  236  A    between atoms: _551  and  _553
REMARK  237  A    between atoms: _553  and  _554
REMARK  238  A    between atoms: _553  and  _556
REMARK  239  A    between atoms: _558  and  _560
REMARK  240  A    between atoms: _560  and  _561
REMARK  241  A    between atoms: _560  and  _563
REMARK  242  A    between atoms: _566  and  _568
REMARK  243  A    between atoms: _568  and  _569
REMARK  244  A    between atoms: _568  and  _571
REMARK  245  A    between atoms: _571  and  _572
REMARK  246  A    between atoms: _577  and  _579
REMARK  247  A    between atoms: _579  and  _580
REMARK  248  A    between atoms: _579  and  _582
REMARK  249  A    between atoms: _582  and  _583
REMARK  250  A    between atoms: _588  and  _589
REMARK                            x       y       z     vdW  Elec       q    Type
REMARK                         _______ _______ _______ _____ _____    ______ ____
ROOT
ATOM      1  C   GLU A   4      19.856 -33.914  11.554  0.00  0.00    +0.241 C 
ATOM      2  O   GLU A   4      20.954 -33.422  11.215  0.00  0.00    -0.273 OA
ATOM      3  N   PHE A   5      19.385 -35.039  11.036  0.00  0.00    -0.297 N 
ATOM      4  H   PHE A   5      18.429 -35.356  11.293  0.00  0.00    +0.150 HD
ENDROOT
BRANCH   3   5
ATOM      5  CA  PHE A   5      20.172 -35.835  10.121  0.00  0.00    +0.153 C 
BRANCH   5   6
ATOM      6  C   PHE A   5      19.692 -35.847   8.685  0.00  0.00    +0.241 C 
ATOM      7  N   TYR A   6      18.517 -35.301   8.404  0.00  0.00    -0.297 N 
ATOM      8  H   TYR A   6      17.950 -34.866   9.160  0.00  0.00    +0.150 HD
ATOM      9  O   PHE A   5      20.381 -36.357   7.834  0.00  0.00    -0.273 OA
BRANCH   7  10
ATOM     10  CA  TYR A   6      18.023 -35.311   7.040  0.00  0.00    +0.153 C 
BRANCH  10  11
ATOM     11  C   TYR A   6      18.772 -34.265   6.224  0.00  0.00    +0.241 C 
ATOM     12  O   TYR A   6      19.003 -33.143   6.674  0.00  0.00    -0.273 OA
ATOM     13  N   HIS A   7      19.086 -34.619   4.990  0.00  0.00    -0.298 N 
ATOM     14  H   HIS A   7      19.000 -35.614   4.700  0.00  0.00    +0.150 HD
BRANCH  13  15
ATOM     15  CA  HIS A   7      19.553 -33.620   4.031  0.00  0.00    +0.143 C 
BRANCH  15  16
ATOM     16  C   HIS A   7      18.555 -32.460   3.939  0.00  0.00    +0.227 C 
ATOM     17  O   HIS A   7      17.358 -32.685   3.995  0.00  0.00    -0.286 OA
ENDBRANCH  15  16
BRANCH  15  18
ATOM     18  CB  HIS A   7      19.720 -34.301   2.666  0.00  0.00    +0.075 C 
BRANCH  18  19
ATOM     19  CG  HIS A   7      20.586 -33.539   1.709  0.00  0.00    +0.082 A 
ATOM     20  CD2 HIS A   7      21.896 -33.677   1.393  0.00  0.00    +0.115 A 
ATOM     21  NE2 HIS A   7      22.193 -32.713   0.460  0.00  0.00    -0.221 NA
ATOM     22  CE1 HIS A   7      21.103 -32.007   0.211  0.00  0.00    +0.199 A 
ATOM     23  ND1 HIS A   7      20.119 -32.491   0.948  0.00  0.00    -0.227 NA
ENDBRANCH  18  19
ENDBRANCH  15  18
ENDBRANCH  13  15
ENDBRANCH  10  11
BRANCH  10  24
ATOM     24  CB  TYR A   6      16.544 -34.937   7.007  0.00  0.00    +0.055 C 
BRANCH  24  25
ATOM     25  CG  TYR A   6      15.593 -35.898   7.698  0.00  0.00    -0.020 A 
ATOM     26  CD2 TYR A   6      14.535 -35.420   8.457  0.00  0.00    -0.001 A 
ATOM     27  CE2 TYR A   6      13.643 -36.273   9.079  0.00  0.00    +0.036 A 
ATOM     28  CZ  TYR A   6      13.823 -37.636   8.966  0.00  0.00    +0.134 A 
ATOM     29  CE1 TYR A   6      14.871 -38.136   8.219  0.00  0.00    +0.036 A 
ATOM     30  CD1 TYR A   6      15.752 -37.265   7.595  0.00  0.00    -0.001 A 
BRANCH  28  31
ATOM     31  OH  TYR A   6      12.945 -38.515   9.584  0.00  0.00    -0.506 OA
ATOM     32  HH  TYR A   6      13.226 -39.446   9.397  0.00  0.00    +0.292 HD
ENDBRANCH  28  31
ENDBRANCH  24  25
ENDBRANCH  10  24
ENDBRANCH   7  10
ENDBRANCH   5   6
BRANCH   5  33
ATOM     33  CB  PHE A   5      20.173 -37.283  10.625  0.00  0.00    +0.055 C 
BRANCH  33  34
ATOM     34  CG  PHE A   5      20.748 -37.436  12.014  0.00  0.00    -0.020 A 
ATOM     35  CD2 PHE A   5      19.916 -37.387  13.119  0.00  0.00    -0.004 A 
ATOM     36  CE2 PHE A   5      20.406 -37.520  14.378  0.00  0.00    -0.000 A 
ATOM     37  CZ  PHE A   5      21.774 -37.702  14.564  0.00  0.00    -0.000 A 
ATOM     38  CE1 PHE A   5      22.617 -37.762  13.478  0.00  0.00    -0.000 A 
ATOM     39  CD1 PHE A   5      22.088 -37.626  12.192  0.00  0.00    -0.004 A 
ENDBRANCH  33  34
ENDBRANCH   5  33
ENDBRANCH   3   5
BRANCH   1  40
ATOM     40  CA  GLU A   4      19.024 -33.262  12.651  0.00  0.00    +0.149 C 
BRANCH  40  42
ATOM     41  C   TYR A   3      16.816 -33.530  11.720  0.00  0.00    +0.241 C 
ATOM     42  N   GLU A   4      17.657 -33.758  12.723  0.00  0.00    -0.297 N 
ATOM     43  H   GLU A   4      17.339 -34.290  13.558  0.00  0.00    +0.150 HD
ATOM     44  O   TYR A   3      17.137 -32.816  10.774  0.00  0.00    -0.273 OA
BRANCH  41  45
ATOM     45  CA  TYR A   3      15.406 -34.155  11.791  0.00  0.00    +0.153 C 
BRANCH  45  47
ATOM     46  C   ALA A   2      16.116 -36.396  12.403  0.00  0.00    +0.241 C 
ATOM     47  N   TYR A   3      15.351 -35.332  12.649  0.00  0.00    -0.297 N 
ATOM     48  H   TYR A   3      14.706 -35.342  13.465  0.00  0.00    +0.150 HD
ATOM     49  O   ALA A   2      16.916 -36.459  11.443  0.00  0.00    -0.273 OA
BRANCH  46  50
ATOM     50  CA  ALA A   2      15.929 -37.553  13.329  0.00  0.00    +0.149 C 
ATOM     51  CB  ALA A   2      14.803 -38.436  12.797  0.00  0.00    +0.031 C 
BRANCH  50  54
ATOM     52  C   SER A   1      16.383 -36.226  15.305  0.00  0.00    +0.241 C 
ATOM     53  O   SER A   1      17.445 -35.782  14.821  0.00  0.00    -0.274 OA
ATOM     54  N   ALA A   2      15.632 -37.132  14.684  0.00  0.00    -0.297 N 
ATOM     55  H   ALA A   2      14.817 -37.546  15.180  0.00  0.00    +0.150 HD
BRANCH  52  56
ATOM     56  CA  SER A   1      15.872 -35.740  16.662  0.00  0.00    +0.174 C 
BRANCH  56  57
ATOM     57  N   SER A   1      16.928 -35.629  17.647  0.00  0.00    -0.236 NA
ATOM     58  H   SER A   1      17.205 -34.686  17.986  0.00  0.00    +0.142 HD
ENDBRANCH  56  57
BRANCH  56  59
ATOM     59  CB  SER A   1      15.227 -34.377  16.448  0.00  0.00    +0.163 C 
BRANCH  59  60
ATOM     60  OG  SER A   1      14.295 -34.493  15.390  0.00  0.00    -0.380 OA
ATOM     61  H   SER A   1      13.863 -33.616  15.234  0.00  0.00    +0.211 HD
ENDBRANCH  59  60
ENDBRANCH  56  59
ENDBRANCH  52  56
ENDBRANCH  50  54
ENDBRANCH  46  50
ENDBRANCH  45  47
BRANCH  45  62
ATOM     62  CB  TYR A   3      14.413 -33.079  12.270  0.00  0.00    +0.055 C 
BRANCH  62  63
ATOM     63  CG  TYR A   3      12.958 -33.343  11.936  0.00  0.00    -0.020 A 
ATOM     64  CD2 TYR A   3      12.077 -33.844  12.893  0.00  0.00    -0.001 A 
ATOM     65  CE2 TYR A   3      10.746 -34.076  12.586  0.00  0.00    +0.036 A 
ATOM     66  CZ  TYR A   3      10.300 -33.811  11.309  0.00  0.00    +0.134 A 
ATOM     67  CE1 TYR A   3      11.158 -33.312  10.351  0.00  0.00    +0.036 A 
ATOM     68  CD1 TYR A   3      12.477 -33.095  10.663  0.00  0.00    -0.001 A 
BRANCH  66  69
ATOM     69  OH  TYR A   3       8.977 -34.037  10.992  0.00  0.00    -0.506 OA
ATOM     70  HH  TYR A   3       8.505 -34.392  11.786  0.00  0.00    +0.292 HD
ENDBRANCH  66  69
ENDBRANCH  62  63
ENDBRANCH  45  62
ENDBRANCH  41  45
ENDBRANCH  40  42
BRANCH  40  71
ATOM     71  CB  GLU A   4      19.728 -33.444  13.972  0.00  0.00    +0.041 C 
BRANCH  71  72
ATOM     72  CG  GLU A   4      19.129 -32.678  15.093  0.00  0.00    +0.116 C 
BRANCH  72  73
ATOM     73  CD  GLU A   4      19.811 -33.000  16.407  0.00  0.00    +0.365 C 
ATOM     74  OE2 GLU A   4      19.135 -32.948  17.449  0.00  0.00    -0.246 OA
ATOM     75  OE1 GLU A   4      21.036 -33.266  16.411  0.00  0.00    -0.246 OA
ENDBRANCH  72  73
ENDBRANCH  71  72
ENDBRANCH  40  71
ENDBRANCH   1  40
TORSDOF 29
REMARK  Name = ../refined-set-2016/4ghi/4ghi_pocket.pdb
REMARK  250 active torsions:
REMARK  status: ('A' for Active; 'I' for Inactive)
REMARK    1  A    between atoms: _1  and  _3
REMARK    2  A    between atoms: _3  and  _4
REMARK    3  A    between atoms: _3  and  _6
REMARK    4  A    between atoms: _6  and  _7
REMARK    5  A    between atoms: _13  and  _15
REMARK    6  A    between atoms: _15  and  _16
REMARK    7  A    between atoms: _15  and  _18
REMARK    8  A    between atoms: _18  and  _19
REMARK    9  A    between atoms: _22  and  _24
REMARK   10  A    between atoms: _24  and  _25
REMARK   11  A    between atoms: _24  and  _27
REMARK   12  A    between atoms: _27  and  _28
REMARK   13  A    between atoms: _30  and  _32
REMARK   14  A    between atoms: _32  and  _33
REMARK   15  A    between atoms: _32  and  _35
REMARK   16  A    between atoms: _35  and  _36
REMARK   17  A    between atoms: _36  and  _37
REMARK   18  A    between atoms: _40  and  _42
REMARK   19  A    between atoms: _42  and  _43
REMARK   20  A    between atoms: _42  and  _45
REMARK   21  A    between atoms: _45  and  _46
REMARK   22  A    between atoms: _51  and  _53
REMARK   23  A    between atoms: _53  and  _54
REMARK   24  A    between atoms: _53  and  _56
REMARK   25  A    between atoms: _56  and  _57
REMARK   26  A    between atoms: _59  and  _61
REMARK   27  A    between atoms: _61  and  _62
REMARK   28  A    between atoms: _61  and  _64
REMARK   29  A    between atoms: _64  and  _65
REMARK   30  A    between atoms: _65  and  _66
REMARK   31  A    between atoms: _68  and  _70
REMARK   32  A    between atoms: _70  and  _71
REMARK   33  A    between atoms: _70  and  _73
REMARK   34  A    between atoms: _73  and  _74
REMARK   35  A    between atoms: _77  and  _79
REMARK   36  A    between atoms: _79  and  _80
REMARK   37  A    between atoms: _79  and  _82
REMARK   38  A    between atoms: _82  and  _83
REMARK   39  A    between atoms: _83  and  _84
REMARK   40  A    between atoms: _86  and  _88
REMARK   41  A    between atoms: _88  and  _89
REMARK   42  A    between atoms: _88  and  _91
REMARK   43  A    between atoms: _91  and  _92
REMARK   44  A    between atoms: _92  and  _93
REMARK   45  A    between atoms: _93  and  _94
REMARK   46  A    between atoms: _94  and  _95
REMARK   47  A    between atoms: _99  and  _101
REMARK   48  A    between atoms: _101  and  _102
REMARK   49  A    between atoms: _101  and  _104
REMARK   50  A    between atoms: _104  and  _105
REMARK   51  A    between atoms: _111  and  _113
REMARK   52  A    between atoms: _113  and  _114
REMARK   53  A    between atoms: _113  and  _116
REMARK   54  A    between atoms: _116  and  _117
REMARK   55  A    between atoms: _120  and  _122
REMARK   56  A    between atoms: _122  and  _123
REMARK   57  A    between atoms: _122  and  _125
REMARK   58  A    between atoms: _125  and  _126
REMARK   59  A    between atoms: _131  and  _132
REMARK   60  A    between atoms: _134  and  _136
REMARK   61  A    between atoms: _136  and  _137
REMARK   62  A    between atoms: _136  and  _139
REMARK   63  A    between atoms: _141  and  _143
REMARK   64  A    between atoms: _143  and  _144
REMARK   65  A    between atoms: _143  and  _146
REMARK   66  A    between atoms: _146  and  _147
REMARK   67  A    between atoms: _150  and  _152
REMARK   68  A    between atoms: _152  and  _153
REMARK   69  A    between atoms: _152  and  _155
REMARK   70  A    between atoms: _155  and  _156
REMARK   71  A    between atoms: _159  and  _161
REMARK   72  A    between atoms: _161  and  _162
REMARK   73  A    between atoms: _161  and  _164
REMARK   74  A    between atoms: _164  and  _165
REMARK   75  A    between atoms: _168  and  _170
REMARK   76  A    between atoms: _170  and  _171
REMARK   77  A    between atoms: _170  and  _173
REMARK   78  A    between atoms: _173  and  _174
REMARK   79  A    between atoms: _179  and  _180
REMARK   80  A    between atoms: _182  and  _184
REMARK   81  A    between atoms: _184  and  _185
REMARK   82  A    between atoms: _184  and  _187
REMARK   83  A    between atoms: _187  and  _188
REMARK   84  A    between atoms: _191  and  _193
REMARK   85  A    between atoms: _193  and  _194
REMARK   86  A    between atoms: _193  and  _196
REMARK   87  A    between atoms: _196  and  _197
REMARK   88  A    between atoms: _199  and  _201
REMARK   89  A    between atoms: _201  and  _202
REMARK   90  A    between atoms: _205  and  _207
REMARK   91  A    between atoms: _207  and  _208
REMARK   92  A    between atoms: _207  and  _210
REMARK   93  A    between atoms: _210  and  _211
REMARK   94  A    between atoms: _216  and  _217
REMARK   95  A    between atoms: _219  and  _221
REMARK   96  A    between atoms: _221  and  _222
REMARK   97  A    between atoms: _221  and  _224
REMARK   98  A    between atoms: _224  and  _225
REMARK   99  A    between atoms: _225  and  _226
REMARK  100  A    between atoms: _229  and  _231
REMARK  101  A    between atoms: _231  and  _232
REMARK  102  A    between atoms: _231  and  _234
REMARK  103  A    between atoms: _234  and  _235
REMARK  104  A    between atoms: _241  and  _243
REMARK  105  A    between atoms: _243  and  _244
REMARK  106  A    between atoms: _243  and  _246
REMARK  107  A    between atoms: _246  and  _247
REMARK  108  A    between atoms: _252  and  _253
REMARK  109  A    between atoms: _255  and  _257
REMARK  110  A    between atoms: _257  and  _258
REMARK  111  A    between atoms: _257  and  _260
REMARK  112  A    between atoms: _260  and  _261
REMARK  113  A    between atoms: _266  and  _268
REMARK  114  A    between atoms: _268  and  _269
REMARK  115  A    between atoms: _268  and  _271
REMARK  116  A    between atoms: _271  and  _272
REMARK  117  A    between atoms: _277  and  _279
REMARK  118  A    between atoms: _279  and  _280
REMARK  119  A    between atoms: _279  and  _282
REMARK  120  A    between atoms: _282  and  _283
REMARK  121  A    between atoms: _283  and  _284
REMARK  122  A    between atoms: _286  and  _288
REMARK  123  A    between atoms: _288  and  _289
REMARK  124  A    between atoms: _288  and  _291
REMARK  125  A    between atoms: _291  and  _292
REMARK  126  A    between atoms: _295  and  _297
REMARK  127  A    between atoms: _297  and  _298
REMARK  128  A    between atoms: _297  and  _300
REMARK  129  A    between atoms: _300  and  _301
REMARK  130  A    between atoms: _301  and  _302
REMARK  131  A    between atoms: _302  and  _303
REMARK  132  A    between atoms: _303  and  _304
REMARK  133  A    between atoms: _308  and  _310
REMARK  134  A    between atoms: _310  and  _311
REMARK  135  A    between atoms: _310  and  _313
REMARK  136  A    between atoms: _313  and  _314
REMARK  137  A    between atoms: _316  and  _318
REMARK  138  A    between atoms: _318  and  _319
REMARK  139  A    between atoms: _318  and  _321
REMARK  140  A    between atoms: _321  and  _322
REMARK  141  A    between atoms: _327  and  _329
REMARK  142  A    between atoms: _329  and  _330
REMARK  143  A    between atoms: _329  and  _332
REMARK  144  A    between atoms: _332  and  _333
REMARK  145  A    between atoms: _333  and  _334
REMARK  146  A    between atoms: _339  and  _341
REMARK  147  A    between atoms: _341  and  _342
REMARK  148  A    between atoms: _341  and  _344
REMARK  149  A    between atoms: _344  and  _345
REMARK  150  A    between atoms: _350  and  _352
REMARK  151  A    between atoms: _352  and  _353
REMARK  152  A    between atoms: _352  and  _355
REMARK  153  A    between atoms: _355  and  _356
REMARK  154  A    between atoms: _359  and  _361
REMARK  155  A    between atoms: _361  and  _362
REMARK  156  A    between atoms: _361  and  _364
REMARK  157  A    between atoms: _366  and  _368
REMARK  158  A    between atoms: _368  and  _369
REMARK  159  A    between atoms: _368  and  _371
REMARK  160  A    between atoms: _371  and  _372
REMARK  161  A    between atoms: _372  and  _373
REMARK  162  A    between atoms: _378  and  _380
REMARK  163  A    between atoms: _380  and  _381
REMARK  164  A    between atoms: _380  and  _383
REMARK  165  A    between atoms: _386  and  _388
REMARK  166  A    between atoms: _388  and  _389
REMARK  167  A    between atoms: _388  and  _391
REMARK  168  A    between atoms: _394  and  _396
REMARK  169  A    between atoms: _396  and  _397
REMARK  170  A    between atoms: _396  and  _399
REMARK  171  A    between atoms: _399  and  _400
REMARK  172  A    between atoms: _402  and  _404
REMARK  173  A    between atoms: _404  and  _405
REMARK  174  A    between atoms: _407  and  _409
REMARK  175  A    between atoms: _409  and  _410
REMARK  176  A    between atoms: _409  and  _412
REMARK  177  A    between atoms: _412  and  _413
REMARK  178  A    between atoms: _418  and  _419
REMARK  179  A    between atoms: _421  and  _423
REMARK  180  A    between atoms: _423  and  _424
REMARK  181  A    between atoms: _423  and  _426
REMARK  182  A    between atoms: _426  and  _427
REMARK  183  A    between atoms: _427  and  _428
REMARK  184  A    between atoms: _428  and  _429
REMARK  185  A    between atoms: _438  and  _440
REMARK  186  A    between atoms: _440  and  _441
REMARK  187  A    between atoms: _440  and  _443
REMARK  188  A    between atoms: _443  and  _444
REMARK  189  A    between atoms: _444  and  _445
REMARK  190  A    between atoms: _447  and  _449
REMARK  191  A    between atoms: _449  and  _450
REMARK  192  A    between atoms: _449  and  _452
REMARK  193  A    between atoms: _452  and  _453
REMARK  194  A    between atoms: _456  and  _458
REMARK  195  A    between atoms: _458  and  _459
REMARK  196  A    between atoms: _458  and  _461
REMARK  197  A    between atoms: _464  and  _466
REMARK  198  A    between atoms: _466  and  _467
REMARK  199  A    between atoms: _466  and  _469
REMARK  200  A    between atoms: _469  and  _470
REMARK  201  A    between atoms: _473  and  _475
REMARK  202  A    between atoms: _475  and  _476
REMARK  203  A    between atoms: _475  and  _478
REMARK  204  A    between atoms: _478  and  _479
REMARK  205  A    between atoms: _479  and  _480
REMARK  206  A    between atoms: _483  and  _485
REMARK  207  A    between atoms: _485  and  _486
REMARK  208  A    between atoms: _485  and  _488
REMARK  209  A    between atoms: _488  and  _489
REMARK  210  A    between atoms: _492  and  _494
REMARK  211  A    between atoms: _494  and  _495
REMARK  212  A    between atoms: _494  and  _497
REMARK  213  A    between atoms: _497  and  _498
REMARK  214  A    between atoms: _498  and  _499
REMARK  215  A    between atoms: _504  and  _506
REMARK  216  A    between atoms: _506  and  _507
REMARK  217  A    between atoms: _509  and  _511
REMARK  218  A    between atoms: _511  and  _512
REMARK  219  A    between atoms: _511  and  _514
REMARK  220  A    between atoms: _514  and  _515
REMARK  221  A    between atoms: _518  and  _520
REMARK  222  A    between atoms: _520  and  _521
REMARK  223  A    between atoms: _520  and  _523
REMARK  224  A    between atoms: _526  and  _528
REMARK  225  A    between atoms: _528  and  _529
REMARK  226  A    between atoms: _528  and  _531
REMARK  227  A    between atoms: _533  and  _535
REMARK  228  A    between atoms: _535  and  _536
REMARK  229  A    between atoms: _535  and  _538
REMARK  230  A    between atoms: _538  and  _539
REMARK  231  A    between atoms: _542  and  _544
REMARK  232  A    between atoms: _544  and  _545
REMARK  233  A    between atoms: _544  and  _547
REMARK  234  A    between atoms: _547  and  _548
REMARK  235  A    between atoms: _548  and  _549
REMARK  236  A    between atoms: _551  and  _553
REMARK  237  A    between atoms: _553  and  _554
REMARK  238  A    between atoms: _553  and  _556
REMARK  239  A    between atoms: _558  and  _560
REMARK  240  A    between atoms: _560  and  _561
REMARK  241  A    between atoms: _560  and  _563
REMARK  242  A    between atoms: _566  and  _568
REMARK  243  A    between atoms: _568  and  _569
REMARK  244  A    between atoms: _568  and  _571
REMARK  245  A    between atoms: _571  and  _572
REMARK  246  A    between atoms: _577  and  _579
REMARK  247  A    between atoms: _579  and  _580
REMARK  248  A    between atoms: _579  and  _582
REMARK  249  A    between atoms: _582  and  _583
REMARK  250  A    between atoms: _588  and  _589
REMARK                            x       y       z     vdW  Elec       q    Type
REMARK                         _______ _______ _______ _____ _____    ______ ____
ROOT
ATOM      1  C   SER A   5       5.643 -38.365   7.396  0.00  0.00    +0.243 C 
ATOM      2  N   HIS A   6       6.300 -37.590   8.256  0.00  0.00    -0.297 N 
ATOM      3  H   HIS A   6       7.029 -36.941   7.898  0.00  0.00    +0.150 HD
ATOM      4  O   SER A   5       4.793 -39.179   7.749  0.00  0.00    -0.273 OA
ENDROOT
BRANCH   2   5
ATOM      5  CA  HIS A   6       6.021 -37.629   9.694  0.00  0.00    +0.155 C 
BRANCH   5   6
ATOM      6  C   HIS A   6       4.559 -37.274   9.985  0.00  0.00    +0.241 C 
ATOM      7  O   HIS A   6       3.926 -37.897  10.831  0.00  0.00    -0.273 OA
ATOM      8  N   GLN A   7       4.022 -36.270   9.293  0.00  0.00    -0.297 N 
ATOM      9  H   GLN A   7       4.607 -35.735   8.619  0.00  0.00    +0.150 HD
BRANCH   8  10
ATOM     10  CA  GLN A   7       2.621 -35.917   9.475  0.00  0.00    +0.149 C 
BRANCH  10  11
ATOM     11  C   GLN A   7       1.731 -37.092   9.066  0.00  0.00    +0.241 C 
ATOM     12  O   GLN A   7       0.755 -37.416   9.751  0.00  0.00    -0.273 OA
ATOM     13  N   ASN A   8       2.061 -37.727   7.949  0.00  0.00    -0.297 N 
ATOM     14  H   ASN A   8       2.894 -37.425   7.405  0.00  0.00    +0.150 HD
BRANCH  13  15
ATOM     15  CA  ASN A   8       1.253 -38.850   7.485  0.00  0.00    +0.158 C 
BRANCH  15  16
ATOM     16  C   ASN A   8       1.321 -40.029   8.474  0.00  0.00    +0.241 C 
ATOM     17  N   LEU A   9       2.518 -40.290   9.002  0.00  0.00    -0.297 N 
ATOM     18  H   LEU A   9       3.335 -39.726   8.691  0.00  0.00    +0.150 HD
ATOM     19  O   ASN A   8       0.304 -40.679   8.748  0.00  0.00    -0.273 OA
BRANCH  17  20
ATOM     20  CA  LEU A   9       2.726 -41.338  10.001  0.00  0.00    +0.149 C 
BRANCH  20  21
ATOM     21  C   LEU A   9       1.852 -41.103  11.225  0.00  0.00    +0.241 C 
ATOM     22  O   LEU A   9       1.215 -42.019  11.730  0.00  0.00    -0.273 OA
ATOM     23  N   CYS A  10       1.812 -39.860  11.693  0.00  0.00    -0.297 N 
ATOM     24  H   CYS A  10       2.308 -39.104  11.179  0.00  0.00    +0.150 HD
BRANCH  23  25
ATOM     25  CA  CYS A  10       1.085 -39.538  12.915  0.00  0.00    +0.149 C 
BRANCH  25  26
ATOM     26  CB  CYS A  10       1.522 -38.159  13.417  0.00  0.00    +0.096 C 
ATOM     27  SG  CYS A  10       3.147 -38.193  14.221  0.00  0.00    -0.080 S 
ENDBRANCH  25  26
BRANCH  25  28
ATOM     28  C   CYS A  10      -0.423 -39.599  12.713  0.00  0.00    +0.228 C 
ATOM     29  O   CYS A  10      -1.167 -39.964  13.627  0.00  0.00    -0.286 OA
ENDBRANCH  25  28
ENDBRANCH  23  25
ENDBRANCH  20  21
BRANCH  20  30
ATOM     30  CB  LEU A   9       4.197 -41.383  10.412  0.00  0.00    +0.029 C 
BRANCH  30  31
ATOM     31  CG  LEU A   9       4.585 -42.284  11.591  0.00  0.00    +0.002 C 
ATOM     32  CD2 LEU A   9       6.072 -42.173  11.867  0.00  0.00    +0.000 C 
ATOM     33  CD1 LEU A   9       4.191 -43.744  11.316  0.00  0.00    +0.000 C 
ENDBRANCH  30  31
ENDBRANCH  20  30
ENDBRANCH  17  20
ENDBRANCH  15  16
BRANCH  15  34
ATOM     34  CB  ASN A   8       1.688 -39.298   6.090  0.00  0.00    +0.114 C 
BRANCH  34  35
ATOM     35  CG  ASN A   8       1.279 -38.310   4.999  0.00  0.00    +0.222 C 
ATOM     36  OD1 ASN A   8       0.266 -37.625   5.111  0.00  0.00    -0.275 OA
ATOM     37  ND2 ASN A   8       2.068 -38.244   3.939  0.00  0.00    -0.329 N 
ATOM     38 HD21 ASN A   8       2.917 -38.842   3.885  0.00  0.00    +0.145 HD
ATOM     39 HD22 ASN A   8       1.839 -37.594   3.160  0.00  0.00    +0.145 HD
ENDBRANCH  34  35
ENDBRANCH  15  34
ENDBRANCH  13  15
ENDBRANCH  10  11
BRANCH  10  40
ATOM     40  CB  GLN A   7       2.266 -34.648   8.678  0.00  0.00    +0.039 C 
BRANCH  40  41
ATOM     41  CG  GLN A   7       2.951 -33.398   9.223  0.00  0.00    +0.087 C 
BRANCH  41  42
ATOM     42  CD  GLN A   7       2.755 -32.155   8.351  0.00  0.00    +0.219 C 
ATOM     43  NE2 GLN A   7       2.960 -30.985   8.943  0.00  0.00    -0.329 N 
ATOM     44 HE21 GLN A   7       3.236 -30.951   9.945  0.00  0.00    +0.145 HD
ATOM     45 HE22 GLN A   7       2.845 -30.103   8.405  0.00  0.00    +0.145 HD
ATOM     46  OE1 GLN A   7       2.427 -32.250   7.167  0.00  0.00    -0.275 OA
ENDBRANCH  41  42
ENDBRANCH  40  41
ENDBRANCH  10  40
ENDBRANCH   8  10
ENDBRANCH   5   6
BRANCH   5  47
ATOM     47  CB  HIS A   6       6.966 -36.655  10.414  0.00  0.00    +0.076 C 
BRANCH  47  48
ATOM     48  CG  HIS A   6       6.866 -36.670  11.912  0.00  0.00    +0.082 A 
ATOM     49  CD2 HIS A   6       6.423 -37.614  12.776  0.00  0.00    +0.115 A 
ATOM     50  NE2 HIS A   6       6.581 -37.107  14.046  0.00  0.00    -0.221 NA
ATOM     51  CE1 HIS A   6       7.119 -35.905  13.964  0.00  0.00    +0.199 A 
ATOM     52  ND1 HIS A   6       7.314 -35.623  12.688  0.00  0.00    -0.227 NA
ENDBRANCH  47  48
ENDBRANCH   5  47
ENDBRANCH   2   5
BRANCH   1  53
ATOM     53  CA  SER A   5       5.937 -38.169   5.906  0.00  0.00    +0.178 C 
BRANCH  53  56
ATOM     54  C   LYS A   4       4.954 -35.973   5.733  0.00  0.00    +0.241 C 
ATOM     55  O   LYS A   4       3.865 -36.402   6.124  0.00  0.00    -0.273 OA
ATOM     56  N   SER A   5       6.016 -36.753   5.584  0.00  0.00    -0.295 N 
ATOM     57  H   SER A   5       6.909 -36.350   5.235  0.00  0.00    +0.150 HD
BRANCH  54  58
ATOM     58  CA  LYS A   4       5.143 -34.490   5.409  0.00  0.00    +0.149 C 
BRANCH  58  61
ATOM     59  C   THR A   3       6.637 -33.895   7.242  0.00  0.00    +0.243 C 
ATOM     60  O   THR A   3       5.811 -34.227   8.089  0.00  0.00    -0.273 OA
ATOM     61  N   LYS A   4       6.412 -33.992   5.935  0.00  0.00    -0.297 N 
ATOM     62  H   LYS A   4       7.159 -33.706   5.270  0.00  0.00    +0.150 HD
BRANCH  59  63
ATOM     63  CA  THR A   3       8.008 -33.376   7.656  0.00  0.00    +0.176 C 
BRANCH  63  66
ATOM     64  C   MET A   2       9.201 -35.310   6.788  0.00  0.00    +0.241 C 
ATOM     65  O   MET A   2       8.622 -36.064   7.577  0.00  0.00    -0.273 OA
ATOM     66  N   THR A   3       9.022 -33.991   6.805  0.00  0.00    -0.295 N 
ATOM     67  H   THR A   3       9.616 -33.388   6.201  0.00  0.00    +0.150 HD
BRANCH  64  68
ATOM     68  CA  MET A   2      10.173 -35.872   5.733  0.00  0.00    +0.149 C 
BRANCH  68  70
ATOM     69  C   ASN A   1       9.197 -35.079   3.651  0.00  0.00    +0.239 C 
ATOM     70  N   MET A   2      10.207 -35.050   4.515  0.00  0.00    -0.297 N 
ATOM     71  H   MET A   2      11.028 -34.440   4.327  0.00  0.00    +0.150 HD
ATOM     72  O   ASN A   1       8.217 -35.797   3.823  0.00  0.00    -0.274 OA
BRANCH  69  73
ATOM     73  CA  ASN A   1       9.292 -34.179   2.404  0.00  0.00    +0.154 C 
BRANCH  73  74
ATOM     74  N   ASN A   1       9.897 -32.880   2.673  0.00  0.00    -0.238 NA
ATOM     75  H   ASN A   1      10.795 -32.633   2.211  0.00  0.00    +0.142 HD
ENDBRANCH  73  74
BRANCH  73  76
ATOM     76  CB  ASN A   1      10.072 -34.949   1.354  0.00  0.00    +0.111 C 
BRANCH  76  77
ATOM     77  CG  ASN A   1       9.869 -34.412  -0.047  0.00  0.00    +0.221 C 
ATOM     78  OD1 ASN A   1       8.885 -33.740  -0.335  0.00  0.00    -0.275 OA
ATOM     79  ND2 ASN A   1      10.804 -34.723  -0.929  0.00  0.00    -0.329 N 
ATOM     80 HD21 ASN A   1      11.622 -35.296  -0.639  0.00  0.00    +0.145 HD
ATOM     81 HD22 ASN A   1      10.721 -34.395  -1.912  0.00  0.00    +0.145 HD
ENDBRANCH  76  77
ENDBRANCH  73  76
ENDBRANCH  69  73
ENDBRANCH  68  70
BRANCH  68  82
ATOM     82  CB  MET A   2      11.584 -36.004   6.301  0.00  0.00    +0.041 C 
BRANCH  82  83
ATOM     83  CG  MET A   2      12.506 -36.797   5.407  0.00  0.00    +0.060 C 
BRANCH  83  84
ATOM     84  SD  MET A   2      11.935 -38.483   5.038  0.00  0.00    -0.139 S 
ATOM     85  CE  MET A   2      11.199 -38.294   3.421  0.00  0.00    +0.069 C 
ENDBRANCH  83  84
ENDBRANCH  82  83
ENDBRANCH  68  82
ENDBRANCH  64  68
ENDBRANCH  63  66
BRANCH  63  86
ATOM     86  CB  THR A   3       8.049 -31.833   7.583  0.00  0.00    +0.137 C 
ATOM     87  CG2 THR A   3       6.923 -31.208   8.404  0.00  0.00    +0.034 C 
BRANCH  86  88
ATOM     88  OG1 THR A   3       9.306 -31.356   8.084  0.00  0.00    -0.382 OA
ATOM     89  HG1 THR A   3      10.041 -31.730   7.537  0.00  0.00    +0.210 HD
ENDBRANCH  86  88
ENDBRANCH  63  86
ENDBRANCH  59  63
ENDBRANCH  58  61
BRANCH  58  90
ATOM     90  CB  LYS A   4       5.062 -34.246   3.898  0.00  0.00    +0.029 C 
BRANCH  90  91
ATOM     91  CG  LYS A   4       4.769 -32.792   3.535  0.00  0.00    +0.000 C 
BRANCH  91  92
ATOM     92  CD  LYS A   4       4.969 -32.517   2.055  0.00  0.00    -0.024 C 
BRANCH  92  93
ATOM     93  CE  LYS A   4       4.665 -31.067   1.734  0.00  0.00    -0.086 C 
BRANCH  93  94
ATOM     94  NZ  LYS A   4       4.924 -30.731   0.311  0.00  0.00    +0.380 N 
ATOM     95  HZ1 LYS A   4       4.700 -29.729   0.146  0.00  0.00    -0.089 HD
ATOM     96  HZ2 LYS A   4       5.926 -30.904   0.092  0.00  0.00    -0.089 HD
ATOM     97  HZ3 LYS A   4       4.327 -31.326  -0.299  0.00  0.00    -0.089 HD
ENDBRANCH  93  94
ENDBRANCH  92  93
ENDBRANCH  91  92
ENDBRANCH  90  91
ENDBRANCH  58  90
ENDBRANCH  54  58
ENDBRANCH  53  56
BRANCH  53  98
ATOM     98  CB  SER A   5       7.200 -38.906   5.478  0.00  0.00    +0.166 C 
BRANCH  98  99
ATOM     99  OG  SER A   5       7.212 -39.052   4.071  0.00  0.00    -0.380 OA
ATOM    100  H   SER A   5       8.034 -39.531   3.797  0.00  0.00    +0.211 HD
ENDBRANCH  98  99
ENDBRANCH  53  98
ENDBRANCH   1  53
TORSDOF 44
REMARK  Name = ../refined-set-2016/4ghi/4ghi_pocket.pdb
REMARK  250 active torsions:
REMARK  status: ('A' for Active; 'I' for Inactive)
REMARK    1  A    between atoms: _1  and  _3
REMARK    2  A    between atoms: _3  and  _4
REMARK    3  A    between atoms: _3  and  _6
REMARK    4  A    between atoms: _6  and  _7
REMARK    5  A    between atoms: _13  and  _15
REMARK    6  A    between atoms: _15  and  _16
REMARK    7  A    between atoms: _15  and  _18
REMARK    8  A    between atoms: _18  and  _19
REMARK    9  A    between atoms: _22  and  _24
REMARK   10  A    between atoms: _24  and  _25
REMARK   11  A    between atoms: _24  and  _27
REMARK   12  A    between atoms: _27  and  _28
REMARK   13  A    between atoms: _30  and  _32
REMARK   14  A    between atoms: _32  and  _33
REMARK   15  A    between atoms: _32  and  _35
REMARK   16  A    between atoms: _35  and  _36
REMARK   17  A    between atoms: _36  and  _37
REMARK   18  A    between atoms: _40  and  _42
REMARK   19  A    between atoms: _42  and  _43
REMARK   20  A    between atoms: _42  and  _45
REMARK   21  A    between atoms: _45  and  _46
REMARK   22  A    between atoms: _51  and  _53
REMARK   23  A    between atoms: _53  and  _54
REMARK   24  A    between atoms: _53  and  _56
REMARK   25  A    between atoms: _56  and  _57
REMARK   26  A    between atoms: _59  and  _61
REMARK   27  A    between atoms: _61  and  _62
REMARK   28  A    between atoms: _61  and  _64
REMARK   29  A    between atoms: _64  and  _65
REMARK   30  A    between atoms: _65  and  _66
REMARK   31  A    between atoms: _68  and  _70
REMARK   32  A    between atoms: _70  and  _71
REMARK   33  A    between atoms: _70  and  _73
REMARK   34  A    between atoms: _73  and  _74
REMARK   35  A    between atoms: _77  and  _79
REMARK   36  A    between atoms: _79  and  _80
REMARK   37  A    between atoms: _79  and  _82
REMARK   38  A    between atoms: _82  and  _83
REMARK   39  A    between atoms: _83  and  _84
REMARK   40  A    between atoms: _86  and  _88
REMARK   41  A    between atoms: _88  and  _89
REMARK   42  A    between atoms: _88  and  _91
REMARK   43  A    between atoms: _91  and  _92
REMARK   44  A    between atoms: _92  and  _93
REMARK   45  A    between atoms: _93  and  _94
REMARK   46  A    between atoms: _94  and  _95
REMARK   47  A    between atoms: _99  and  _101
REMARK   48  A    between atoms: _101  and  _102
REMARK   49  A    between atoms: _101  and  _104
REMARK   50  A    between atoms: _104  and  _105
REMARK   51  A    between atoms: _111  and  _113
REMARK   52  A    between atoms: _113  and  _114
REMARK   53  A    between atoms: _113  and  _116
REMARK   54  A    between atoms: _116  and  _117
REMARK   55  A    between atoms: _120  and  _122
REMARK   56  A    between atoms: _122  and  _123
REMARK   57  A    between atoms: _122  and  _125
REMARK   58  A    between atoms: _125  and  _126
REMARK   59  A    between atoms: _131  and  _132
REMARK   60  A    between atoms: _134  and  _136
REMARK   61  A    between atoms: _136  and  _137
REMARK   62  A    between atoms: _136  and  _139
REMARK   63  A    between atoms: _141  and  _143
REMARK   64  A    between atoms: _143  and  _144
REMARK   65  A    between atoms: _143  and  _146
REMARK   66  A    between atoms: _146  and  _147
REMARK   67  A    between atoms: _150  and  _152
REMARK   68  A    between atoms: _152  and  _153
REMARK   69  A    between atoms: _152  and  _155
REMARK   70  A    between atoms: _155  and  _156
REMARK   71  A    between atoms: _159  and  _161
REMARK   72  A    between atoms: _161  and  _162
REMARK   73  A    between atoms: _161  and  _164
REMARK   74  A    between atoms: _164  and  _165
REMARK   75  A    between atoms: _168  and  _170
REMARK   76  A    between atoms: _170  and  _171
REMARK   77  A    between atoms: _170  and  _173
REMARK   78  A    between atoms: _173  and  _174
REMARK   79  A    between atoms: _179  and  _180
REMARK   80  A    between atoms: _182  and  _184
REMARK   81  A    between atoms: _184  and  _185
REMARK   82  A    between atoms: _184  and  _187
REMARK   83  A    between atoms: _187  and  _188
REMARK   84  A    between atoms: _191  and  _193
REMARK   85  A    between atoms: _193  and  _194
REMARK   86  A    between atoms: _193  and  _196
REMARK   87  A    between atoms: _196  and  _197
REMARK   88  A    between atoms: _199  and  _201
REMARK   89  A    between atoms: _201  and  _202
REMARK   90  A    between atoms: _205  and  _207
REMARK   91  A    between atoms: _207  and  _208
REMARK   92  A    between atoms: _207  and  _210
REMARK   93  A    between atoms: _210  and  _211
REMARK   94  A    between atoms: _216  and  _217
REMARK   95  A    between atoms: _219  and  _221
REMARK   96  A    between atoms: _221  and  _222
REMARK   97  A    between atoms: _221  and  _224
REMARK   98  A    between atoms: _224  and  _225
REMARK   99  A    between atoms: _225  and  _226
REMARK  100  A    between atoms: _229  and  _231
REMARK  101  A    between atoms: _231  and  _232
REMARK  102  A    between atoms: _231  and  _234
REMARK  103  A    between atoms: _234  and  _235
REMARK  104  A    between atoms: _241  and  _243
REMARK  105  A    between atoms: _243  and  _244
REMARK  106  A    between atoms: _243  and  _246
REMARK  107  A    between atoms: _246  and  _247
REMARK  108  A    between atoms: _252  and  _253
REMARK  109  A    between atoms: _255  and  _257
REMARK  110  A    between atoms: _257  and  _258
REMARK  111  A    between atoms: _257  and  _260
REMARK  112  A    between atoms: _260  and  _261
REMARK  113  A    between atoms: _266  and  _268
REMARK  114  A    between atoms: _268  and  _269
REMARK  115  A    between atoms: _268  and  _271
REMARK  116  A    between atoms: _271  and  _272
REMARK  117  A    between atoms: _277  and  _279
REMARK  118  A    between atoms: _279  and  _280
REMARK  119  A    between atoms: _279  and  _282
REMARK  120  A    between atoms: _282  and  _283
REMARK  121  A    between atoms: _283  and  _284
REMARK  122  A    between atoms: _286  and  _288
REMARK  123  A    between atoms: _288  and  _289
REMARK  124  A    between atoms: _288  and  _291
REMARK  125  A    between atoms: _291  and  _292
REMARK  126  A    between atoms: _295  and  _297
REMARK  127  A    between atoms: _297  and  _298
REMARK  128  A    between atoms: _297  and  _300
REMARK  129  A    between atoms: _300  and  _301
REMARK  130  A    between atoms: _301  and  _302
REMARK  131  A    between atoms: _302  and  _303
REMARK  132  A    between atoms: _303  and  _304
REMARK  133  A    between atoms: _308  and  _310
REMARK  134  A    between atoms: _310  and  _311
REMARK  135  A    between atoms: _310  and  _313
REMARK  136  A    between atoms: _313  and  _314
REMARK  137  A    between atoms: _316  and  _318
REMARK  138  A    between atoms: _318  and  _319
REMARK  139  A    between atoms: _318  and  _321
REMARK  140  A    between atoms: _321  and  _322
REMARK  141  A    between atoms: _327  and  _329
REMARK  142  A    between atoms: _329  and  _330
REMARK  143  A    between atoms: _329  and  _332
REMARK  144  A    between atoms: _332  and  _333
REMARK  145  A    between atoms: _333  and  _334
REMARK  146  A    between atoms: _339  and  _341
REMARK  147  A    between atoms: _341  and  _342
REMARK  148  A    between atoms: _341  and  _344
REMARK  149  A    between atoms: _344  and  _345
REMARK  150  A    between atoms: _350  and  _352
REMARK  151  A    between atoms: _352  and  _353
REMARK  152  A    between atoms: _352  and  _355
REMARK  153  A    between atoms: _355  and  _356
REMARK  154  A    between atoms: _359  and  _361
REMARK  155  A    between atoms: _361  and  _362
REMARK  156  A    between atoms: _361  and  _364
REMARK  157  A    between atoms: _366  and  _368
REMARK  158  A    between atoms: _368  and  _369
REMARK  159  A    between atoms: _368  and  _371
REMARK  160  A    between atoms: _371  and  _372
REMARK  161  A    between atoms: _372  and  _373
REMARK  162  A    between atoms: _378  and  _380
REMARK  163  A    between atoms: _380  and  _381
REMARK  164  A    between atoms: _380  and  _383
REMARK  165  A    between atoms: _386  and  _388
REMARK  166  A    between atoms: _388  and  _389
REMARK  167  A    between atoms: _388  and  _391
REMARK  168  A    between atoms: _394  and  _396
REMARK  169  A    between atoms: _396  and  _397
REMARK  170  A    between atoms: _396  and  _399
REMARK  171  A    between atoms: _399  and  _400
REMARK  172  A    between atoms: _402  and  _404
REMARK  173  A    between atoms: _404  and  _405
REMARK  174  A    between atoms: _407  and  _409
REMARK  175  A    between atoms: _409  and  _410
REMARK  176  A    between atoms: _409  and  _412
REMARK  177  A    between atoms: _412  and  _413
REMARK  178  A    between atoms: _418  and  _419
REMARK  179  A    between atoms: _421  and  _423
REMARK  180  A    between atoms: _423  and  _424
REMARK  181  A    between atoms: _423  and  _426
REMARK  182  A    between atoms: _426  and  _427
REMARK  183  A    between atoms: _427  and  _428
REMARK  184  A    between atoms: _428  and  _429
REMARK  185  A    between atoms: _438  and  _440
REMARK  186  A    between atoms: _440  and  _441
REMARK  187  A    between atoms: _440  and  _443
REMARK  188  A    between atoms: _443  and  _444
REMARK  189  A    between atoms: _444  and  _445
REMARK  190  A    between atoms: _447  and  _449
REMARK  191  A    between atoms: _449  and  _450
REMARK  192  A    between atoms: _449  and  _452
REMARK  193  A    between atoms: _452  and  _453
REMARK  194  A    between atoms: _456  and  _458
REMARK  195  A    between atoms: _458  and  _459
REMARK  196  A    between atoms: _458  and  _461
REMARK  197  A    between atoms: _464  and  _466
REMARK  198  A    between atoms: _466  and  _467
REMARK  199  A    between atoms: _466  and  _469
REMARK  200  A    between atoms: _469  and  _470
REMARK  201  A    between atoms: _473  and  _475
REMARK  202  A    between atoms: _475  and  _476
REMARK  203  A    between atoms: _475  and  _478
REMARK  204  A    between atoms: _478  and  _479
REMARK  205  A    between atoms: _479  and  _480
REMARK  206  A    between atoms: _483  and  _485
REMARK  207  A    between atoms: _485  and  _486
REMARK  208  A    between atoms: _485  and  _488
REMARK  209  A    between atoms: _488  and  _489
REMARK  210  A    between atoms: _492  and  _494
REMARK  211  A    between atoms: _494  and  _495
REMARK  212  A    between atoms: _494  and  _497
REMARK  213  A    between atoms: _497  and  _498
REMARK  214  A    between atoms: _498  and  _499
REMARK  215  A    between atoms: _504  and  _506
REMARK  216  A    between atoms: _506  and  _507
REMARK  217  A    between atoms: _509  and  _511
REMARK  218  A    between atoms: _511  and  _512
REMARK  219  A    between atoms: _511  and  _514
REMARK  220  A    between atoms: _514  and  _515
REMARK  221  A    between atoms: _518  and  _520
REMARK  222  A    between atoms: _520  and  _521
REMARK  223  A    between atoms: _520  and  _523
REMARK  224  A    between atoms: _526  and  _528
REMARK  225  A    between atoms: _528  and  _529
REMARK  226  A    between atoms: _528  and  _531
REMARK  227  A    between atoms: _533  and  _535
REMARK  228  A    between atoms: _535  and  _536
REMARK  229  A    between atoms: _535  and  _538
REMARK  230  A    between atoms: _538  and  _539
REMARK  231  A    between atoms: _542  and  _544
REMARK  232  A    between atoms: _544  and  _545
REMARK  233  A    between atoms: _544  and  _547
REMARK  234  A    between atoms: _547  and  _548
REMARK  235  A    between atoms: _548  and  _549
REMARK  236  A    between atoms: _551  and  _553
REMARK  237  A    between atoms: _553  and  _554
REMARK  238  A    between atoms: _553  and  _556
REMARK  239  A    between atoms: _558  and  _560
REMARK  240  A    between atoms: _560  and  _561
REMARK  241  A    between atoms: _560  and  _563
REMARK  242  A    between atoms: _566  and  _568
REMARK  243  A    between atoms: _568  and  _569
REMARK  244  A    between atoms: _568  and  _571
REMARK  245  A    between atoms: _571  and  _572
REMARK  246  A    between atoms: _577  and  _579
REMARK  247  A    between atoms: _579  and  _580
REMARK  248  A    between atoms: _579  and  _582
REMARK  249  A    between atoms: _582  and  _583
REMARK  250  A    between atoms: _588  and  _589
REMARK                            x       y       z     vdW  Elec       q    Type
REMARK                         _______ _______ _______ _____ _____    ______ ____
ROOT
ATOM      1  C   VAL A   2       5.289 -45.434   5.984  0.00  0.00    +0.241 C 
ATOM      2  O   VAL A   2       6.084 -46.047   6.681  0.00  0.00    -0.273 OA
ATOM      3  N   VAL A   3       5.379 -45.365   4.662  0.00  0.00    -0.297 N 
ATOM      4  H   VAL A   3       4.530 -45.128   4.110  0.00  0.00    +0.150 HD
ENDROOT
BRANCH   3   5
ATOM      5  CA  VAL A   3       6.632 -45.612   3.960  0.00  0.00    +0.149 C 
BRANCH   5   6
ATOM      6  C   VAL A   3       7.170 -44.243   3.574  0.00  0.00    +0.241 C 
ATOM      7  N   SER A   4       8.399 -43.966   3.981  0.00  0.00    -0.295 N 
ATOM      8  H   SER A   4       8.997 -44.739   4.337  0.00  0.00    +0.150 HD
ATOM      9  O   VAL A   3       6.483 -43.459   2.922  0.00  0.00    -0.273 OA
BRANCH   7  10
ATOM     10  CA  SER A   4       8.939 -42.619   3.946  0.00  0.00    +0.178 C 
BRANCH  10  11
ATOM     11  C   SER A   4       9.178 -42.064   2.563  0.00  0.00    +0.243 C 
ATOM     12  O   SER A   4       9.120 -40.845   2.382  0.00  0.00    -0.273 OA
ATOM     13  N   GLY A   5       9.477 -42.926   1.602  0.00  0.00    -0.296 N 
ATOM     14  H   GLY A   5       9.268 -43.937   1.730  0.00  0.00    +0.150 HD
BRANCH  13  15
ATOM     15  CA  GLY A   5      10.097 -42.463   0.367  0.00  0.00    +0.163 C 
BRANCH  15  16
ATOM     16  C   GLY A   5      11.600 -42.349   0.556  0.00  0.00    +0.229 C 
ATOM     17  O   GLY A   5      12.106 -42.436   1.680  0.00  0.00    -0.286 OA
ENDBRANCH  15  16
ENDBRANCH  13  15
ENDBRANCH  10  11
BRANCH  10  18
ATOM     18  CB  SER A   4      10.267 -42.566   4.706  0.00  0.00    +0.166 C 
BRANCH  18  19
ATOM     19  OG  SER A   4      11.283 -43.292   4.021  0.00  0.00    -0.380 OA
ATOM     20  H   SER A   4      11.418 -42.900   3.122  0.00  0.00    +0.211 HD
ENDBRANCH  18  19
ENDBRANCH  10  18
ENDBRANCH   7  10
ENDBRANCH   5   6
BRANCH   5  21
ATOM     21  CB  VAL A   3       6.455 -46.476   2.719  0.00  0.00    +0.027 C 
ATOM     22  CG2 VAL A   3       5.937 -47.852   3.121  0.00  0.00    +0.002 C 
ATOM     23  CG1 VAL A   3       7.783 -46.605   1.997  0.00  0.00    +0.002 C 
ENDBRANCH   5  21
ENDBRANCH   3   5
BRANCH   1  24
ATOM     24  CA  VAL A   2       4.120 -44.724   6.623  0.00  0.00    +0.148 C 
BRANCH  24  26
ATOM     25  C   GLN A   1       2.503 -45.274   8.328  0.00  0.00    +0.238 C 
ATOM     26  N   VAL A   2       3.720 -45.430   7.826  0.00  0.00    -0.297 N 
ATOM     27  H   VAL A   2       4.395 -46.065   8.299  0.00  0.00    +0.150 HD
ATOM     28  O   GLN A   1       1.678 -44.525   7.818  0.00  0.00    -0.274 OA
BRANCH  25  29
ATOM     29  CA  GLN A   1       2.149 -46.096   9.558  0.00  0.00    +0.145 C 
BRANCH  29  30
ATOM     30  N   GLN A   1       1.049 -45.440  10.260  0.00  0.00    -0.238 NA
ATOM     31  H   GLN A   1       0.414 -44.818   9.719  0.00  0.00    +0.142 HD
ENDBRANCH  29  30
BRANCH  29  32
ATOM     32  CB  GLN A   1       1.756 -47.521   9.113  0.00  0.00    +0.036 C 
BRANCH  32  33
ATOM     33  CG  GLN A   1       1.649 -48.540  10.232  0.00  0.00    +0.087 C 
BRANCH  33  34
ATOM     34  CD  GLN A   1       1.500 -49.993   9.727  0.00  0.00    +0.219 C 
ATOM     35  NE2 GLN A   1       2.444 -50.850  10.114  0.00  0.00    -0.329 N 
ATOM     36 HE21 GLN A   1       3.220 -50.527  10.726  0.00  0.00    +0.145 HD
ATOM     37 HE22 GLN A   1       2.405 -51.842   9.804  0.00  0.00    +0.145 HD
ATOM     38  OE1 GLN A   1       0.559 -50.331   9.000  0.00  0.00    -0.275 OA
ENDBRANCH  33  34
ENDBRANCH  32  33
ENDBRANCH  29  32
ENDBRANCH  25  29
ENDBRANCH  24  26
BRANCH  24  39
ATOM     39  CB  VAL A   2       4.553 -43.262   6.930  0.00  0.00    +0.027 C 
ATOM     40  CG2 VAL A   2       5.952 -43.234   7.540  0.00  0.00    +0.002 C 
ATOM     41  CG1 VAL A   2       4.503 -42.405   5.668  0.00  0.00    +0.002 C 
ENDBRANCH  24  39
ENDBRANCH   1  24
TORSDOF 17
REMARK  Name = ../refined-set-2016/4ghi/4ghi_pocket.pdb
REMARK  250 active torsions:
REMARK  status: ('A' for Active; 'I' for Inactive)
REMARK    1  A    between atoms: _1  and  _3
REMARK    2  A    between atoms: _3  and  _4
REMARK    3  A    between atoms: _3  and  _6
REMARK    4  A    between atoms: _6  and  _7
REMARK    5  A    between atoms: _13  and  _15
REMARK    6  A    between atoms: _15  and  _16
REMARK    7  A    between atoms: _15  and  _18
REMARK    8  A    between atoms: _18  and  _19
REMARK    9  A    between atoms: _22  and  _24
REMARK   10  A    between atoms: _24  and  _25
REMARK   11  A    between atoms: _24  and  _27
REMARK   12  A    between atoms: _27  and  _28
REMARK   13  A    between atoms: _30  and  _32
REMARK   14  A    between atoms: _32  and  _33
REMARK   15  A    between atoms: _32  and  _35
REMARK   16  A    between atoms: _35  and  _36
REMARK   17  A    between atoms: _36  and  _37
REMARK   18  A    between atoms: _40  and  _42
REMARK   19  A    between atoms: _42  and  _43
REMARK   20  A    between atoms: _42  and  _45
REMARK   21  A    between atoms: _45  and  _46
REMARK   22  A    between atoms: _51  and  _53
REMARK   23  A    between atoms: _53  and  _54
REMARK   24  A    between atoms: _53  and  _56
REMARK   25  A    between atoms: _56  and  _57
REMARK   26  A    between atoms: _59  and  _61
REMARK   27  A    between atoms: _61  and  _62
REMARK   28  A    between atoms: _61  and  _64
REMARK   29  A    between atoms: _64  and  _65
REMARK   30  A    between atoms: _65  and  _66
REMARK   31  A    between atoms: _68  and  _70
REMARK   32  A    between atoms: _70  and  _71
REMARK   33  A    between atoms: _70  and  _73
REMARK   34  A    between atoms: _73  and  _74
REMARK   35  A    between atoms: _77  and  _79
REMARK   36  A    between atoms: _79  and  _80
REMARK   37  A    between atoms: _79  and  _82
REMARK   38  A    between atoms: _82  and  _83
REMARK   39  A    between atoms: _83  and  _84
REMARK   40  A    between atoms: _86  and  _88
REMARK   41  A    between atoms: _88  and  _89
REMARK   42  A    between atoms: _88  and  _91
REMARK   43  A    between atoms: _91  and  _92
REMARK   44  A    between atoms: _92  and  _93
REMARK   45  A    between atoms: _93  and  _94
REMARK   46  A    between atoms: _94  and  _95
REMARK   47  A    between atoms: _99  and  _101
REMARK   48  A    between atoms: _101  and  _102
REMARK   49  A    between atoms: _101  and  _104
REMARK   50  A    between atoms: _104  and  _105
REMARK   51  A    between atoms: _111  and  _113
REMARK   52  A    between atoms: _113  and  _114
REMARK   53  A    between atoms: _113  and  _116
REMARK   54  A    between atoms: _116  and  _117
REMARK   55  A    between atoms: _120  and  _122
REMARK   56  A    between atoms: _122  and  _123
REMARK   57  A    between atoms: _122  and  _125
REMARK   58  A    between atoms: _125  and  _126
REMARK   59  A    between atoms: _131  and  _132
REMARK   60  A    between atoms: _134  and  _136
REMARK   61  A    between atoms: _136  and  _137
REMARK   62  A    between atoms: _136  and  _139
REMARK   63  A    between atoms: _141  and  _143
REMARK   64  A    between atoms: _143  and  _144
REMARK   65  A    between atoms: _143  and  _146
REMARK   66  A    between atoms: _146  and  _147
REMARK   67  A    between atoms: _150  and  _152
REMARK   68  A    between atoms: _152  and  _153
REMARK   69  A    between atoms: _152  and  _155
REMARK   70  A    between atoms: _155  and  _156
REMARK   71  A    between atoms: _159  and  _161
REMARK   72  A    between atoms: _161  and  _162
REMARK   73  A    between atoms: _161  and  _164
REMARK   74  A    between atoms: _164  and  _165
REMARK   75  A    between atoms: _168  and  _170
REMARK   76  A    between atoms: _170  and  _171
REMARK   77  A    between atoms: _170  and  _173
REMARK   78  A    between atoms: _173  and  _174
REMARK   79  A    between atoms: _179  and  _180
REMARK   80  A    between atoms: _182  and  _184
REMARK   81  A    between atoms: _184  and  _185
REMARK   82  A    between atoms: _184  and  _187
REMARK   83  A    between atoms: _187  and  _188
REMARK   84  A    between atoms: _191  and  _193
REMARK   85  A    between atoms: _193  and  _194
REMARK   86  A    between atoms: _193  and  _196
REMARK   87  A    between atoms: _196  and  _197
REMARK   88  A    between atoms: _199  and  _201
REMARK   89  A    between atoms: _201  and  _202
REMARK   90  A    between atoms: _205  and  _207
REMARK   91  A    between atoms: _207  and  _208
REMARK   92  A    between atoms: _207  and  _210
REMARK   93  A    between atoms: _210  and  _211
REMARK   94  A    between atoms: _216  and  _217
REMARK   95  A    between atoms: _219  and  _221
REMARK   96  A    between atoms: _221  and  _222
REMARK   97  A    between atoms: _221  and  _224
REMARK   98  A    between atoms: _224  and  _225
REMARK   99  A    between atoms: _225  and  _226
REMARK  100  A    between atoms: _229  and  _231
REMARK  101  A    between atoms: _231  and  _232
REMARK  102  A    between atoms: _231  and  _234
REMARK  103  A    between atoms: _234  and  _235
REMARK  104  A    between atoms: _241  and  _243
REMARK  105  A    between atoms: _243  and  _244
REMARK  106  A    between atoms: _243  and  _246
REMARK  107  A    between atoms: _246  and  _247
REMARK  108  A    between atoms: _252  and  _253
REMARK  109  A    between atoms: _255  and  _257
REMARK  110  A    between atoms: _257  and  _258
REMARK  111  A    between atoms: _257  and  _260
REMARK  112  A    between atoms: _260  and  _261
REMARK  113  A    between atoms: _266  and  _268
REMARK  114  A    between atoms: _268  and  _269
REMARK  115  A    between atoms: _268  and  _271
REMARK  116  A    between atoms: _271  and  _272
REMARK  117  A    between atoms: _277  and  _279
REMARK  118  A    between atoms: _279  and  _280
REMARK  119  A    between atoms: _279  and  _282
REMARK  120  A    between atoms: _282  and  _283
REMARK  121  A    between atoms: _283  and  _284
REMARK  122  A    between atoms: _286  and  _288
REMARK  123  A    between atoms: _288  and  _289
REMARK  124  A    between atoms: _288  and  _291
REMARK  125  A    between atoms: _291  and  _292
REMARK  126  A    between atoms: _295  and  _297
REMARK  127  A    between atoms: _297  and  _298
REMARK  128  A    between atoms: _297  and  _300
REMARK  129  A    between atoms: _300  and  _301
REMARK  130  A    between atoms: _301  and  _302
REMARK  131  A    between atoms: _302  and  _303
REMARK  132  A    between atoms: _303  and  _304
REMARK  133  A    between atoms: _308  and  _310
REMARK  134  A    between atoms: _310  and  _311
REMARK  135  A    between atoms: _310  and  _313
REMARK  136  A    between atoms: _313  and  _314
REMARK  137  A    between atoms: _316  and  _318
REMARK  138  A    between atoms: _318  and  _319
REMARK  139  A    between atoms: _318  and  _321
REMARK  140  A    between atoms: _321  and  _322
REMARK  141  A    between atoms: _327  and  _329
REMARK  142  A    between atoms: _329  and  _330
REMARK  143  A    between atoms: _329  and  _332
REMARK  144  A    between atoms: _332  and  _333
REMARK  145  A    between atoms: _333  and  _334
REMARK  146  A    between atoms: _339  and  _341
REMARK  147  A    between atoms: _341  and  _342
REMARK  148  A    between atoms: _341  and  _344
REMARK  149  A    between atoms: _344  and  _345
REMARK  150  A    between atoms: _350  and  _352
REMARK  151  A    between atoms: _352  and  _353
REMARK  152  A    between atoms: _352  and  _355
REMARK  153  A    between atoms: _355  and  _356
REMARK  154  A    between atoms: _359  and  _361
REMARK  155  A    between atoms: _361  and  _362
REMARK  156  A    between atoms: _361  and  _364
REMARK  157  A    between atoms: _366  and  _368
REMARK  158  A    between atoms: _368  and  _369
REMARK  159  A    between atoms: _368  and  _371
REMARK  160  A    between atoms: _371  and  _372
REMARK  161  A    between atoms: _372  and  _373
REMARK  162  A    between atoms: _378  and  _380
REMARK  163  A    between atoms: _380  and  _381
REMARK  164  A    between atoms: _380  and  _383
REMARK  165  A    between atoms: _386  and  _388
REMARK  166  A    between atoms: _388  and  _389
REMARK  167  A    between atoms: _388  and  _391
REMARK  168  A    between atoms: _394  and  _396
REMARK  169  A    between atoms: _396  and  _397
REMARK  170  A    between atoms: _396  and  _399
REMARK  171  A    between atoms: _399  and  _400
REMARK  172  A    between atoms: _402  and  _404
REMARK  173  A    between atoms: _404  and  _405
REMARK  174  A    between atoms: _407  and  _409
REMARK  175  A    between atoms: _409  and  _410
REMARK  176  A    between atoms: _409  and  _412
REMARK  177  A    between atoms: _412  and  _413
REMARK  178  A    between atoms: _418  and  _419
REMARK  179  A    between atoms: _421  and  _423
REMARK  180  A    between atoms: _423  and  _424
REMARK  181  A    between atoms: _423  and  _426
REMARK  182  A    between atoms: _426  and  _427
REMARK  183  A    between atoms: _427  and  _428
REMARK  184  A    between atoms: _428  and  _429
REMARK  185  A    between atoms: _438  and  _440
REMARK  186  A    between atoms: _440  and  _441
REMARK  187  A    between atoms: _440  and  _443
REMARK  188  A    between atoms: _443  and  _444
REMARK  189  A    between atoms: _444  and  _445
REMARK  190  A    between atoms: _447  and  _449
REMARK  191  A    between atoms: _449  and  _450
REMARK  192  A    between atoms: _449  and  _452
REMARK  193  A    between atoms: _452  and  _453
REMARK  194  A    between atoms: _456  and  _458
REMARK  195  A    between atoms: _458  and  _459
REMARK  196  A    between atoms: _458  and  _461
REMARK  197  A    between atoms: _464  and  _466
REMARK  198  A    between atoms: _466  and  _467
REMARK  199  A    between atoms: _466  and  _469
REMARK  200  A    between atoms: _469  and  _470
REMARK  201  A    between atoms: _473  and  _475
REMARK  202  A    between atoms: _475  and  _476
REMARK  203  A    between atoms: _475  and  _478
REMARK  204  A    between atoms: _478  and  _479
REMARK  205  A    between atoms: _479  and  _480
REMARK  206  A    between atoms: _483  and  _485
REMARK  207  A    between atoms: _485  and  _486
REMARK  208  A    between atoms: _485  and  _488
REMARK  209  A    between atoms: _488  and  _489
REMARK  210  A    between atoms: _492  and  _494
REMARK  211  A    between atoms: _494  and  _495
REMARK  212  A    between atoms: _494  and  _497
REMARK  213  A    between atoms: _497  and  _498
REMARK  214  A    between atoms: _498  and  _499
REMARK  215  A    between atoms: _504  and  _506
REMARK  216  A    between atoms: _506  and  _507
REMARK  217  A    between atoms: _509  and  _511
REMARK  218  A    between atoms: _511  and  _512
REMARK  219  A    between atoms: _511  and  _514
REMARK  220  A    between atoms: _514  and  _515
REMARK  221  A    between atoms: _518  and  _520
REMARK  222  A    between atoms: _520  and  _521
REMARK  223  A    between atoms: _520  and  _523
REMARK  224  A    between atoms: _526  and  _528
REMARK  225  A    between atoms: _528  and  _529
REMARK  226  A    between atoms: _528  and  _531
REMARK  227  A    between atoms: _533  and  _535
REMARK  228  A    between atoms: _535  and  _536
REMARK  229  A    between atoms: _535  and  _538
REMARK  230  A    between atoms: _538  and  _539
REMARK  231  A    between atoms: _542  and  _544
REMARK  232  A    between atoms: _544  and  _545
REMARK  233  A    between atoms: _544  and  _547
REMARK  234  A    between atoms: _547  and  _548
REMARK  235  A    between atoms: _548  and  _549
REMARK  236  A    between atoms: _551  and  _553
REMARK  237  A    between atoms: _553  and  _554
REMARK  238  A    between atoms: _553  and  _556
REMARK  239  A    between atoms: _558  and  _560
REMARK  240  A    between atoms: _560  and  _561
REMARK  241  A    between atoms: _560  and  _563
REMARK  242  A    between atoms: _566  and  _568
REMARK  243  A    between atoms: _568  and  _569
REMARK  244  A    between atoms: _568  and  _571
REMARK  245  A    between atoms: _571  and  _572
REMARK  246  A    between atoms: _577  and  _579
REMARK  247  A    between atoms: _579  and  _580
REMARK  248  A    between atoms: _579  and  _582
REMARK  249  A    between atoms: _582  and  _583
REMARK  250  A    between atoms: _588  and  _589
REMARK                            x       y       z     vdW  Elec       q    Type
REMARK                         _______ _______ _______ _____ _____    ______ ____
ROOT
ATOM      1  CA  ARG A   2      19.357 -38.925   2.642  0.00  0.00    +0.149 C 
ENDROOT
BRANCH   1   3
ATOM      2  C   TYR A   1      17.226 -39.929   2.011  0.00  0.00    +0.239 C 
ATOM      3  N   ARG A   2      17.959 -38.845   2.269  0.00  0.00    -0.297 N 
ATOM      4  H   ARG A   2      17.511 -37.909   2.200  0.00  0.00    +0.150 HD
ATOM      5  O   TYR A   1      17.669 -41.082   2.039  0.00  0.00    -0.274 OA
BRANCH   2   6
ATOM      6  CA  TYR A   1      15.775 -39.677   1.675  0.00  0.00    +0.149 C 
BRANCH   6   7
ATOM      7  N   TYR A   1      15.221 -40.898   1.094  0.00  0.00    -0.238 NA
ATOM      8  H   TYR A   1      15.600 -41.824   1.378  0.00  0.00    +0.142 HD
ENDBRANCH   6   7
BRANCH   6   9
ATOM      9  CB  TYR A   1      15.005 -39.259   2.926  0.00  0.00    +0.053 C 
BRANCH   9  10
ATOM     10  CG  TYR A   1      15.106 -40.225   4.090  0.00  0.00    -0.020 A 
ATOM     11  CD2 TYR A   1      16.035 -40.035   5.111  0.00  0.00    -0.001 A 
ATOM     12  CE2 TYR A   1      16.106 -40.927   6.169  0.00  0.00    +0.036 A 
ATOM     13  CZ  TYR A   1      15.248 -41.973   6.254  0.00  0.00    +0.134 A 
ATOM     14  CE1 TYR A   1      14.310 -42.184   5.270  0.00  0.00    +0.036 A 
ATOM     15  CD1 TYR A   1      14.219 -41.304   4.215  0.00  0.00    -0.001 A 
BRANCH  13  16
ATOM     16  OH  TYR A   1      15.320 -42.832   7.332  0.00  0.00    -0.506 OA
ATOM     17  HH  TYR A   1      14.629 -43.534   7.239  0.00  0.00    +0.292 HD
ENDBRANCH  13  16
ENDBRANCH   9  10
ENDBRANCH   6   9
ENDBRANCH   2   6
ENDBRANCH   1   3
BRANCH   1  18
ATOM     18  C   ARG A   2      19.547 -38.658   4.121  0.00  0.00    +0.241 C 
ATOM     19  N   MET A   3      20.280 -39.552   4.784  0.00  0.00    -0.297 N 
ATOM     20  H   MET A   3      20.552 -40.428   4.293  0.00  0.00    +0.150 HD
ATOM     21  O   ARG A   2      19.072 -37.617   4.630  0.00  0.00    -0.273 OA
BRANCH  19  22
ATOM     22  CA  MET A   3      20.722 -39.367   6.165  0.00  0.00    +0.149 C 
BRANCH  22  23
ATOM     23  C   MET A   3      22.199 -38.975   6.176  0.00  0.00    +0.241 C 
ATOM     24  N   LEU A   4      22.509 -37.872   6.866  0.00  0.00    -0.298 N 
ATOM     25  H   LEU A   4      21.723 -37.300   7.235  0.00  0.00    +0.150 HD
ATOM     26  O   MET A   3      23.030 -39.669   5.577  0.00  0.00    -0.273 OA
BRANCH  24  27
ATOM     27  CA  LEU A   4      23.864 -37.411   7.140  0.00  0.00    +0.137 C 
BRANCH  27  28
ATOM     28  C   LEU A   4      24.664 -38.528   7.823  0.00  0.00    +0.227 C 
ATOM     29  O   LEU A   4      24.235 -39.034   8.852  0.00  0.00    -0.286 OA
ENDBRANCH  27  28
BRANCH  27  30
ATOM     30  CB  LEU A   4      23.788 -36.192   8.069  0.00  0.00    +0.028 C 
BRANCH  30  31
ATOM     31  CG  LEU A   4      25.081 -35.576   8.620  0.00  0.00    +0.002 C 
ATOM     32  CD2 LEU A   4      24.840 -34.604   9.805  0.00  0.00    +0.000 C 
ATOM     33  CD1 LEU A   4      25.831 -34.856   7.522  0.00  0.00    +0.000 C 
ENDBRANCH  30  31
ENDBRANCH  27  30
ENDBRANCH  24  27
ENDBRANCH  22  23
BRANCH  22  34
ATOM     34  CB  MET A   3      20.552 -40.643   7.002  0.00  0.00    +0.041 C 
BRANCH  34  35
ATOM     35  CG  MET A   3      20.899 -40.426   8.451  0.00  0.00    +0.060 C 
BRANCH  35  36
ATOM     36  SD  MET A   3      20.832 -41.934   9.434  0.00  0.00    -0.139 S 
ATOM     37  CE  MET A   3      21.032 -41.291  11.099  0.00  0.00    +0.069 C 
ENDBRANCH  35  36
ENDBRANCH  34  35
ENDBRANCH  22  34
ENDBRANCH  19  22
ENDBRANCH   1  18
BRANCH   1  38
ATOM     38  CB  ARG A   2      20.149 -37.876   1.857  0.00  0.00    +0.033 C 
BRANCH  38  39
ATOM     39  CG  ARG A   2      20.299 -38.178   0.372  0.00  0.00    +0.045 C 
BRANCH  39  40
ATOM     40  CD  ARG A   2      20.462 -36.890  -0.468  0.00  0.00    +0.174 C 
BRANCH  40  41
ATOM     41  NE  ARG A   2      19.168 -36.265  -0.711  0.00  0.00    -0.265 N 
ATOM     42  HE  ARG A   2      18.362 -36.581  -0.135  0.00  0.00    +0.259 HD
ATOM     43  CZ  ARG A   2      18.948 -35.323  -1.615  0.00  0.00    +0.342 C 
ATOM     44  NH2 ARG A   2      17.730 -34.834  -1.781  0.00  0.00    -0.292 N 
ATOM     45 HH21 ARG A   2      16.943 -35.189  -1.201  0.00  0.00    +0.255 HD
ATOM     46 HH22 ARG A   2      17.559 -34.094  -2.492  0.00  0.00    +0.255 HD
ATOM     47  NH1 ARG A   2      19.951 -34.871  -2.355  0.00  0.00    -0.292 N 
ATOM     48 HH11 ARG A   2      20.908 -35.256  -2.225  0.00  0.00    +0.255 HD
ATOM     49 HH12 ARG A   2      19.781 -34.131  -3.066  0.00  0.00    +0.255 HD
ENDBRANCH  40  41
ENDBRANCH  39  40
ENDBRANCH  38  39
ENDBRANCH   1  38
TORSDOF 20
REMARK  Name = ../refined-set-2016/4ghi/4ghi_pocket.pdb
REMARK  250 active torsions:
REMARK  status: ('A' for Active; 'I' for Inactive)
REMARK    1  A    between atoms: _1  and  _3
REMARK    2  A    between atoms: _3  and  _4
REMARK    3  A    between atoms: _3  and  _6
REMARK    4  A    between atoms: _6  and  _7
REMARK    5  A    between atoms: _13  and  _15
REMARK    6  A    between atoms: _15  and  _16
REMARK    7  A    between atoms: _15  and  _18
REMARK    8  A    between atoms: _18  and  _19
REMARK    9  A    between atoms: _22  and  _24
REMARK   10  A    between atoms: _24  and  _25
REMARK   11  A    between atoms: _24  and  _27
REMARK   12  A    between atoms: _27  and  _28
REMARK   13  A    between atoms: _30  and  _32
REMARK   14  A    between atoms: _32  and  _33
REMARK   15  A    between atoms: _32  and  _35
REMARK   16  A    between atoms: _35  and  _36
REMARK   17  A    between atoms: _36  and  _37
REMARK   18  A    between atoms: _40  and  _42
REMARK   19  A    between atoms: _42  and  _43
REMARK   20  A    between atoms: _42  and  _45
REMARK   21  A    between atoms: _45  and  _46
REMARK   22  A    between atoms: _51  and  _53
REMARK   23  A    between atoms: _53  and  _54
REMARK   24  A    between atoms: _53  and  _56
REMARK   25  A    between atoms: _56  and  _57
REMARK   26  A    between atoms: _59  and  _61
REMARK   27  A    between atoms: _61  and  _62
REMARK   28  A    between atoms: _61  and  _64
REMARK   29  A    between atoms: _64  and  _65
REMARK   30  A    between atoms: _65  and  _66
REMARK   31  A    between atoms: _68  and  _70
REMARK   32  A    between atoms: _70  and  _71
REMARK   33  A    between atoms: _70  and  _73
REMARK   34  A    between atoms: _73  and  _74
REMARK   35  A    between atoms: _77  and  _79
REMARK   36  A    between atoms: _79  and  _80
REMARK   37  A    between atoms: _79  and  _82
REMARK   38  A    between atoms: _82  and  _83
REMARK   39  A    between atoms: _83  and  _84
REMARK   40  A    between atoms: _86  and  _88
REMARK   41  A    between atoms: _88  and  _89
REMARK   42  A    between atoms: _88  and  _91
REMARK   43  A    between atoms: _91  and  _92
REMARK   44  A    between atoms: _92  and  _93
REMARK   45  A    between atoms: _93  and  _94
REMARK   46  A    between atoms: _94  and  _95
REMARK   47  A    between atoms: _99  and  _101
REMARK   48  A    between atoms: _101  and  _102
REMARK   49  A    between atoms: _101  and  _104
REMARK   50  A    between atoms: _104  and  _105
REMARK   51  A    between atoms: _111  and  _113
REMARK   52  A    between atoms: _113  and  _114
REMARK   53  A    between atoms: _113  and  _116
REMARK   54  A    between atoms: _116  and  _117
REMARK   55  A    between atoms: _120  and  _122
REMARK   56  A    between atoms: _122  and  _123
REMARK   57  A    between atoms: _122  and  _125
REMARK   58  A    between atoms: _125  and  _126
REMARK   59  A    between atoms: _131  and  _132
REMARK   60  A    between atoms: _134  and  _136
REMARK   61  A    between atoms: _136  and  _137
REMARK   62  A    between atoms: _136  and  _139
REMARK   63  A    between atoms: _141  and  _143
REMARK   64  A    between atoms: _143  and  _144
REMARK   65  A    between atoms: _143  and  _146
REMARK   66  A    between atoms: _146  and  _147
REMARK   67  A    between atoms: _150  and  _152
REMARK   68  A    between atoms: _152  and  _153
REMARK   69  A    between atoms: _152  and  _155
REMARK   70  A    between atoms: _155  and  _156
REMARK   71  A    between atoms: _159  and  _161
REMARK   72  A    between atoms: _161  and  _162
REMARK   73  A    between atoms: _161  and  _164
REMARK   74  A    between atoms: _164  and  _165
REMARK   75  A    between atoms: _168  and  _170
REMARK   76  A    between atoms: _170  and  _171
REMARK   77  A    between atoms: _170  and  _173
REMARK   78  A    between atoms: _173  and  _174
REMARK   79  A    between atoms: _179  and  _180
REMARK   80  A    between atoms: _182  and  _184
REMARK   81  A    between atoms: _184  and  _185
REMARK   82  A    between atoms: _184  and  _187
REMARK   83  A    between atoms: _187  and  _188
REMARK   84  A    between atoms: _191  and  _193
REMARK   85  A    between atoms: _193  and  _194
REMARK   86  A    between atoms: _193  and  _196
REMARK   87  A    between atoms: _196  and  _197
REMARK   88  A    between atoms: _199  and  _201
REMARK   89  A    between atoms: _201  and  _202
REMARK   90  A    between atoms: _205  and  _207
REMARK   91  A    between atoms: _207  and  _208
REMARK   92  A    between atoms: _207  and  _210
REMARK   93  A    between atoms: _210  and  _211
REMARK   94  A    between atoms: _216  and  _217
REMARK   95  A    between atoms: _219  and  _221
REMARK   96  A    between atoms: _221  and  _222
REMARK   97  A    between atoms: _221  and  _224
REMARK   98  A    between atoms: _224  and  _225
REMARK   99  A    between atoms: _225  and  _226
REMARK  100  A    between atoms: _229  and  _231
REMARK  101  A    between atoms: _231  and  _232
REMARK  102  A    between atoms: _231  and  _234
REMARK  103  A    between atoms: _234  and  _235
REMARK  104  A    between atoms: _241  and  _243
REMARK  105  A    between atoms: _243  and  _244
REMARK  106  A    between atoms: _243  and  _246
REMARK  107  A    between atoms: _246  and  _247
REMARK  108  A    between atoms: _252  and  _253
REMARK  109  A    between atoms: _255  and  _257
REMARK  110  A    between atoms: _257  and  _258
REMARK  111  A    between atoms: _257  and  _260
REMARK  112  A    between atoms: _260  and  _261
REMARK  113  A    between atoms: _266  and  _268
REMARK  114  A    between atoms: _268  and  _269
REMARK  115  A    between atoms: _268  and  _271
REMARK  116  A    between atoms: _271  and  _272
REMARK  117  A    between atoms: _277  and  _279
REMARK  118  A    between atoms: _279  and  _280
REMARK  119  A    between atoms: _279  and  _282
REMARK  120  A    between atoms: _282  and  _283
REMARK  121  A    between atoms: _283  and  _284
REMARK  122  A    between atoms: _286  and  _288
REMARK  123  A    between atoms: _288  and  _289
REMARK  124  A    between atoms: _288  and  _291
REMARK  125  A    between atoms: _291  and  _292
REMARK  126  A    between atoms: _295  and  _297
REMARK  127  A    between atoms: _297  and  _298
REMARK  128  A    between atoms: _297  and  _300
REMARK  129  A    between atoms: _300  and  _301
REMARK  130  A    between atoms: _301  and  _302
REMARK  131  A    between atoms: _302  and  _303
REMARK  132  A    between atoms: _303  and  _304
REMARK  133  A    between atoms: _308  and  _310
REMARK  134  A    between atoms: _310  and  _311
REMARK  135  A    between atoms: _310  and  _313
REMARK  136  A    between atoms: _313  and  _314
REMARK  137  A    between atoms: _316  and  _318
REMARK  138  A    between atoms: _318  and  _319
REMARK  139  A    between atoms: _318  and  _321
REMARK  140  A    between atoms: _321  and  _322
REMARK  141  A    between atoms: _327  and  _329
REMARK  142  A    between atoms: _329  and  _330
REMARK  143  A    between atoms: _329  and  _332
REMARK  144  A    between atoms: _332  and  _333
REMARK  145  A    between atoms: _333  and  _334
REMARK  146  A    between atoms: _339  and  _341
REMARK  147  A    between atoms: _341  and  _342
REMARK  148  A    between atoms: _341  and  _344
REMARK  149  A    between atoms: _344  and  _345
REMARK  150  A    between atoms: _350  and  _352
REMARK  151  A    between atoms: _352  and  _353
REMARK  152  A    between atoms: _352  and  _355
REMARK  153  A    between atoms: _355  and  _356
REMARK  154  A    between atoms: _359  and  _361
REMARK  155  A    between atoms: _361  and  _362
REMARK  156  A    between atoms: _361  and  _364
REMARK  157  A    between atoms: _366  and  _368
REMARK  158  A    between atoms: _368  and  _369
REMARK  159  A    between atoms: _368  and  _371
REMARK  160  A    between atoms: _371  and  _372
REMARK  161  A    between atoms: _372  and  _373
REMARK  162  A    between atoms: _378  and  _380
REMARK  163  A    between atoms: _380  and  _381
REMARK  164  A    between atoms: _380  and  _383
REMARK  165  A    between atoms: _386  and  _388
REMARK  166  A    between atoms: _388  and  _389
REMARK  167  A    between atoms: _388  and  _391
REMARK  168  A    between atoms: _394  and  _396
REMARK  169  A    between atoms: _396  and  _397
REMARK  170  A    between atoms: _396  and  _399
REMARK  171  A    between atoms: _399  and  _400
REMARK  172  A    between atoms: _402  and  _404
REMARK  173  A    between atoms: _404  and  _405
REMARK  174  A    between atoms: _407  and  _409
REMARK  175  A    between atoms: _409  and  _410
REMARK  176  A    between atoms: _409  and  _412
REMARK  177  A    between atoms: _412  and  _413
REMARK  178  A    between atoms: _418  and  _419
REMARK  179  A    between atoms: _421  and  _423
REMARK  180  A    between atoms: _423  and  _424
REMARK  181  A    between atoms: _423  and  _426
REMARK  182  A    between atoms: _426  and  _427
REMARK  183  A    between atoms: _427  and  _428
REMARK  184  A    between atoms: _428  and  _429
REMARK  185  A    between atoms: _438  and  _440
REMARK  186  A    between atoms: _440  and  _441
REMARK  187  A    between atoms: _440  and  _443
REMARK  188  A    between atoms: _443  and  _444
REMARK  189  A    between atoms: _444  and  _445
REMARK  190  A    between atoms: _447  and  _449
REMARK  191  A    between atoms: _449  and  _450
REMARK  192  A    between atoms: _449  and  _452
REMARK  193  A    between atoms: _452  and  _453
REMARK  194  A    between atoms: _456  and  _458
REMARK  195  A    between atoms: _458  and  _459
REMARK  196  A    between atoms: _458  and  _461
REMARK  197  A    between atoms: _464  and  _466
REMARK  198  A    between atoms: _466  and  _467
REMARK  199  A    between atoms: _466  and  _469
REMARK  200  A    between atoms: _469  and  _470
REMARK  201  A    between atoms: _473  and  _475
REMARK  202  A    between atoms: _475  and  _476
REMARK  203  A    between atoms: _475  and  _478
REMARK  204  A    between atoms: _478  and  _479
REMARK  205  A    between atoms: _479  and  _480
REMARK  206  A    between atoms: _483  and  _485
REMARK  207  A    between atoms: _485  and  _486
REMARK  208  A    between atoms: _485  and  _488
REMARK  209  A    between atoms: _488  and  _489
REMARK  210  A    between atoms: _492  and  _494
REMARK  211  A    between atoms: _494  and  _495
REMARK  212  A    between atoms: _494  and  _497
REMARK  213  A    between atoms: _497  and  _498
REMARK  214  A    between atoms: _498  and  _499
REMARK  215  A    between atoms: _504  and  _506
REMARK  216  A    between atoms: _506  and  _507
REMARK  217  A    between atoms: _509  and  _511
REMARK  218  A    between atoms: _511  and  _512
REMARK  219  A    between atoms: _511  and  _514
REMARK  220  A    between atoms: _514  and  _515
REMARK  221  A    between atoms: _518  and  _520
REMARK  222  A    between atoms: _520  and  _521
REMARK  223  A    between atoms: _520  and  _523
REMARK  224  A    between atoms: _526  and  _528
REMARK  225  A    between atoms: _528  and  _529
REMARK  226  A    between atoms: _528  and  _531
REMARK  227  A    between atoms: _533  and  _535
REMARK  228  A    between atoms: _535  and  _536
REMARK  229  A    between atoms: _535  and  _538
REMARK  230  A    between atoms: _538  and  _539
REMARK  231  A    between atoms: _542  and  _544
REMARK  232  A    between atoms: _544  and  _545
REMARK  233  A    between atoms: _544  and  _547
REMARK  234  A    between atoms: _547  and  _548
REMARK  235  A    between atoms: _548  and  _549
REMARK  236  A    between atoms: _551  and  _553
REMARK  237  A    between atoms: _553  and  _554
REMARK  238  A    between atoms: _553  and  _556
REMARK  239  A    between atoms: _558  and  _560
REMARK  240  A    between atoms: _560  and  _561
REMARK  241  A    between atoms: _560  and  _563
REMARK  242  A    between atoms: _566  and  _568
REMARK  243  A    between atoms: _568  and  _569
REMARK  244  A    between atoms: _568  and  _571
REMARK  245  A    between atoms: _571  and  _572
REMARK  246  A    between atoms: _577  and  _579
REMARK  247  A    between atoms: _579  and  _580
REMARK  248  A    between atoms: _579  and  _582
REMARK  249  A    between atoms: _582  and  _583
REMARK  250  A    between atoms: _588  and  _589
REMARK                            x       y       z     vdW  Elec       q    Type
REMARK                         _______ _______ _______ _____ _____    ______ ____
ROOT
ATOM      1  CA  VAL A   1      23.495 -42.325   2.636  0.00  0.00    +0.133 C 
ENDROOT
BRANCH   1   2
ATOM      2  CB  VAL A   1      23.896 -43.435   3.621  0.00  0.00    +0.023 C 
ATOM      3  CG2 VAL A   1      23.166 -43.268   4.947  0.00  0.00    +0.002 C 
ATOM      4  CG1 VAL A   1      23.629 -44.796   3.019  0.00  0.00    +0.002 C 
ENDBRANCH   1   2
BRANCH   1   5
ATOM      5  N   VAL A   1      23.873 -41.015   3.129  0.00  0.00    -0.239 NA
ATOM      6  H   VAL A   1      23.411 -40.636   3.980  0.00  0.00    +0.142 HD
ENDBRANCH   1   5
BRANCH   1   7
ATOM      7  C   VAL A   1      21.995 -42.362   2.387  0.00  0.00    +0.224 C 
ATOM      8  O   VAL A   1      21.192 -42.005   3.259  0.00  0.00    -0.287 OA
ENDBRANCH   1   7
TORSDOF 3
REMARK  Name = ../refined-set-2016/4ghi/4ghi_pocket.pdb
REMARK  250 active torsions:
REMARK  status: ('A' for Active; 'I' for Inactive)
REMARK    1  A    between atoms: _1  and  _3
REMARK    2  A    between atoms: _3  and  _4
REMARK    3  A    between atoms: _3  and  _6
REMARK    4  A    between atoms: _6  and  _7
REMARK    5  A    between atoms: _13  and  _15
REMARK    6  A    between atoms: _15  and  _16
REMARK    7  A    between atoms: _15  and  _18
REMARK    8  A    between atoms: _18  and  _19
REMARK    9  A    between atoms: _22  and  _24
REMARK   10  A    between atoms: _24  and  _25
REMARK   11  A    between atoms: _24  and  _27
REMARK   12  A    between atoms: _27  and  _28
REMARK   13  A    between atoms: _30  and  _32
REMARK   14  A    between atoms: _32  and  _33
REMARK   15  A    between atoms: _32  and  _35
REMARK   16  A    between atoms: _35  and  _36
REMARK   17  A    between atoms: _36  and  _37
REMARK   18  A    between atoms: _40  and  _42
REMARK   19  A    between atoms: _42  and  _43
REMARK   20  A    between atoms: _42  and  _45
REMARK   21  A    between atoms: _45  and  _46
REMARK   22  A    between atoms: _51  and  _53
REMARK   23  A    between atoms: _53  and  _54
REMARK   24  A    between atoms: _53  and  _56
REMARK   25  A    between atoms: _56  and  _57
REMARK   26  A    between atoms: _59  and  _61
REMARK   27  A    between atoms: _61  and  _62
REMARK   28  A    between atoms: _61  and  _64
REMARK   29  A    between atoms: _64  and  _65
REMARK   30  A    between atoms: _65  and  _66
REMARK   31  A    between atoms: _68  and  _70
REMARK   32  A    between atoms: _70  and  _71
REMARK   33  A    between atoms: _70  and  _73
REMARK   34  A    between atoms: _73  and  _74
REMARK   35  A    between atoms: _77  and  _79
REMARK   36  A    between atoms: _79  and  _80
REMARK   37  A    between atoms: _79  and  _82
REMARK   38  A    between atoms: _82  and  _83
REMARK   39  A    between atoms: _83  and  _84
REMARK   40  A    between atoms: _86  and  _88
REMARK   41  A    between atoms: _88  and  _89
REMARK   42  A    between atoms: _88  and  _91
REMARK   43  A    between atoms: _91  and  _92
REMARK   44  A    between atoms: _92  and  _93
REMARK   45  A    between atoms: _93  and  _94
REMARK   46  A    between atoms: _94  and  _95
REMARK   47  A    between atoms: _99  and  _101
REMARK   48  A    between atoms: _101  and  _102
REMARK   49  A    between atoms: _101  and  _104
REMARK   50  A    between atoms: _104  and  _105
REMARK   51  A    between atoms: _111  and  _113
REMARK   52  A    between atoms: _113  and  _114
REMARK   53  A    between atoms: _113  and  _116
REMARK   54  A    between atoms: _116  and  _117
REMARK   55  A    between atoms: _120  and  _122
REMARK   56  A    between atoms: _122  and  _123
REMARK   57  A    between atoms: _122  and  _125
REMARK   58  A    between atoms: _125  and  _126
REMARK   59  A    between atoms: _131  and  _132
REMARK   60  A    between atoms: _134  and  _136
REMARK   61  A    between atoms: _136  and  _137
REMARK   62  A    between atoms: _136  and  _139
REMARK   63  A    between atoms: _141  and  _143
REMARK   64  A    between atoms: _143  and  _144
REMARK   65  A    between atoms: _143  and  _146
REMARK   66  A    between atoms: _146  and  _147
REMARK   67  A    between atoms: _150  and  _152
REMARK   68  A    between atoms: _152  and  _153
REMARK   69  A    between atoms: _152  and  _155
REMARK   70  A    between atoms: _155  and  _156
REMARK   71  A    between atoms: _159  and  _161
REMARK   72  A    between atoms: _161  and  _162
REMARK   73  A    between atoms: _161  and  _164
REMARK   74  A    between atoms: _164  and  _165
REMARK   75  A    between atoms: _168  and  _170
REMARK   76  A    between atoms: _170  and  _171
REMARK   77  A    between atoms: _170  and  _173
REMARK   78  A    between atoms: _173  and  _174
REMARK   79  A    between atoms: _179  and  _180
REMARK   80  A    between atoms: _182  and  _184
REMARK   81  A    between atoms: _184  and  _185
REMARK   82  A    between atoms: _184  and  _187
REMARK   83  A    between atoms: _187  and  _188
REMARK   84  A    between atoms: _191  and  _193
REMARK   85  A    between atoms: _193  and  _194
REMARK   86  A    between atoms: _193  and  _196
REMARK   87  A    between atoms: _196  and  _197
REMARK   88  A    between atoms: _199  and  _201
REMARK   89  A    between atoms: _201  and  _202
REMARK   90  A    between atoms: _205  and  _207
REMARK   91  A    between atoms: _207  and  _208
REMARK   92  A    between atoms: _207  and  _210
REMARK   93  A    between atoms: _210  and  _211
REMARK   94  A    between atoms: _216  and  _217
REMARK   95  A    between atoms: _219  and  _221
REMARK   96  A    between atoms: _221  and  _222
REMARK   97  A    between atoms: _221  and  _224
REMARK   98  A    between atoms: _224  and  _225
REMARK   99  A    between atoms: _225  and  _226
REMARK  100  A    between atoms: _229  and  _231
REMARK  101  A    between atoms: _231  and  _232
REMARK  102  A    between atoms: _231  and  _234
REMARK  103  A    between atoms: _234  and  _235
REMARK  104  A    between atoms: _241  and  _243
REMARK  105  A    between atoms: _243  and  _244
REMARK  106  A    between atoms: _243  and  _246
REMARK  107  A    between atoms: _246  and  _247
REMARK  108  A    between atoms: _252  and  _253
REMARK  109  A    between atoms: _255  and  _257
REMARK  110  A    between atoms: _257  and  _258
REMARK  111  A    between atoms: _257  and  _260
REMARK  112  A    between atoms: _260  and  _261
REMARK  113  A    between atoms: _266  and  _268
REMARK  114  A    between atoms: _268  and  _269
REMARK  115  A    between atoms: _268  and  _271
REMARK  116  A    between atoms: _271  and  _272
REMARK  117  A    between atoms: _277  and  _279
REMARK  118  A    between atoms: _279  and  _280
REMARK  119  A    between atoms: _279  and  _282
REMARK  120  A    between atoms: _282  and  _283
REMARK  121  A    between atoms: _283  and  _284
REMARK  122  A    between atoms: _286  and  _288
REMARK  123  A    between atoms: _288  and  _289
REMARK  124  A    between atoms: _288  and  _291
REMARK  125  A    between atoms: _291  and  _292
REMARK  126  A    between atoms: _295  and  _297
REMARK  127  A    between atoms: _297  and  _298
REMARK  128  A    between atoms: _297  and  _300
REMARK  129  A    between atoms: _300  and  _301
REMARK  130  A    between atoms: _301  and  _302
REMARK  131  A    between atoms: _302  and  _303
REMARK  132  A    between atoms: _303  and  _304
REMARK  133  A    between atoms: _308  and  _310
REMARK  134  A    between atoms: _310  and  _311
REMARK  135  A    between atoms: _310  and  _313
REMARK  136  A    between atoms: _313  and  _314
REMARK  137  A    between atoms: _316  and  _318
REMARK  138  A    between atoms: _318  and  _319
REMARK  139  A    between atoms: _318  and  _321
REMARK  140  A    between atoms: _321  and  _322
REMARK  141  A    between atoms: _327  and  _329
REMARK  142  A    between atoms: _329  and  _330
REMARK  143  A    between atoms: _329  and  _332
REMARK  144  A    between atoms: _332  and  _333
REMARK  145  A    between atoms: _333  and  _334
REMARK  146  A    between atoms: _339  and  _341
REMARK  147  A    between atoms: _341  and  _342
REMARK  148  A    between atoms: _341  and  _344
REMARK  149  A    between atoms: _344  and  _345
REMARK  150  A    between atoms: _350  and  _352
REMARK  151  A    between atoms: _352  and  _353
REMARK  152  A    between atoms: _352  and  _355
REMARK  153  A    between atoms: _355  and  _356
REMARK  154  A    between atoms: _359  and  _361
REMARK  155  A    between atoms: _361  and  _362
REMARK  156  A    between atoms: _361  and  _364
REMARK  157  A    between atoms: _366  and  _368
REMARK  158  A    between atoms: _368  and  _369
REMARK  159  A    between atoms: _368  and  _371
REMARK  160  A    between atoms: _371  and  _372
REMARK  161  A    between atoms: _372  and  _373
REMARK  162  A    between atoms: _378  and  _380
REMARK  163  A    between atoms: _380  and  _381
REMARK  164  A    between atoms: _380  and  _383
REMARK  165  A    between atoms: _386  and  _388
REMARK  166  A    between atoms: _388  and  _389
REMARK  167  A    between atoms: _388  and  _391
REMARK  168  A    between atoms: _394  and  _396
REMARK  169  A    between atoms: _396  and  _397
REMARK  170  A    between atoms: _396  and  _399
REMARK  171  A    between atoms: _399  and  _400
REMARK  172  A    between atoms: _402  and  _404
REMARK  173  A    between atoms: _404  and  _405
REMARK  174  A    between atoms: _407  and  _409
REMARK  175  A    between atoms: _409  and  _410
REMARK  176  A    between atoms: _409  and  _412
REMARK  177  A    between atoms: _412  and  _413
REMARK  178  A    between atoms: _418  and  _419
REMARK  179  A    between atoms: _421  and  _423
REMARK  180  A    between atoms: _423  and  _424
REMARK  181  A    between atoms: _423  and  _426
REMARK  182  A    between atoms: _426  and  _427
REMARK  183  A    between atoms: _427  and  _428
REMARK  184  A    between atoms: _428  and  _429
REMARK  185  A    between atoms: _438  and  _440
REMARK  186  A    between atoms: _440  and  _441
REMARK  187  A    between atoms: _440  and  _443
REMARK  188  A    between atoms: _443  and  _444
REMARK  189  A    between atoms: _444  and  _445
REMARK  190  A    between atoms: _447  and  _449
REMARK  191  A    between atoms: _449  and  _450
REMARK  192  A    between atoms: _449  and  _452
REMARK  193  A    between atoms: _452  and  _453
REMARK  194  A    between atoms: _456  and  _458
REMARK  195  A    between atoms: _458  and  _459
REMARK  196  A    between atoms: _458  and  _461
REMARK  197  A    between atoms: _464  and  _466
REMARK  198  A    between atoms: _466  and  _467
REMARK  199  A    between atoms: _466  and  _469
REMARK  200  A    between atoms: _469  and  _470
REMARK  201  A    between atoms: _473  and  _475
REMARK  202  A    between atoms: _475  and  _476
REMARK  203  A    between atoms: _475  and  _478
REMARK  204  A    between atoms: _478  and  _479
REMARK  205  A    between atoms: _479  and  _480
REMARK  206  A    between atoms: _483  and  _485
REMARK  207  A    between atoms: _485  and  _486
REMARK  208  A    between atoms: _485  and  _488
REMARK  209  A    between atoms: _488  and  _489
REMARK  210  A    between atoms: _492  and  _494
REMARK  211  A    between atoms: _494  and  _495
REMARK  212  A    between atoms: _494  and  _497
REMARK  213  A    between atoms: _497  and  _498
REMARK  214  A    between atoms: _498  and  _499
REMARK  215  A    between atoms: _504  and  _506
REMARK  216  A    between atoms: _506  and  _507
REMARK  217  A    between atoms: _509  and  _511
REMARK  218  A    between atoms: _511  and  _512
REMARK  219  A    between atoms: _511  and  _514
REMARK  220  A    between atoms: _514  and  _515
REMARK  221  A    between atoms: _518  and  _520
REMARK  222  A    between atoms: _520  and  _521
REMARK  223  A    between atoms: _520  and  _523
REMARK  224  A    between atoms: _526  and  _528
REMARK  225  A    between atoms: _528  and  _529
REMARK  226  A    between atoms: _528  and  _531
REMARK  227  A    between atoms: _533  and  _535
REMARK  228  A    between atoms: _535  and  _536
REMARK  229  A    between atoms: _535  and  _538
REMARK  230  A    between atoms: _538  and  _539
REMARK  231  A    between atoms: _542  and  _544
REMARK  232  A    between atoms: _544  and  _545
REMARK  233  A    between atoms: _544  and  _547
REMARK  234  A    between atoms: _547  and  _548
REMARK  235  A    between atoms: _548  and  _549
REMARK  236  A    between atoms: _551  and  _553
REMARK  237  A    between atoms: _553  and  _554
REMARK  238  A    between atoms: _553  and  _556
REMARK  239  A    between atoms: _558  and  _560
REMARK  240  A    between atoms: _560  and  _561
REMARK  241  A    between atoms: _560  and  _563
REMARK  242  A    between atoms: _566  and  _568
REMARK  243  A    between atoms: _568  and  _569
REMARK  244  A    between atoms: _568  and  _571
REMARK  245  A    between atoms: _571  and  _572
REMARK  246  A    between atoms: _577  and  _579
REMARK  247  A    between atoms: _579  and  _580
REMARK  248  A    between atoms: _579  and  _582
REMARK  249  A    between atoms: _582  and  _583
REMARK  250  A    between atoms: _588  and  _589
REMARK                            x       y       z     vdW  Elec       q    Type
REMARK                         _______ _______ _______ _____ _____    ______ ____
ROOT
ATOM      1  CA  GLN A   4       8.881 -48.048   7.094  0.00  0.00    +0.149 C 
ENDROOT
BRANCH   1   2
ATOM      2  C   GLN A   4       8.681 -47.683   8.575  0.00  0.00    +0.241 C 
ATOM      3  O   GLN A   4       9.321 -48.303   9.435  0.00  0.00    -0.273 OA
ATOM      4  N   GLY A   5       7.817 -46.705   8.860  0.00  0.00    -0.295 N 
ATOM      5  H   GLY A   5       7.328 -46.227   8.077  0.00  0.00    +0.150 HD
BRANCH   4   6
ATOM      6  CA  GLY A   5       7.532 -46.281  10.226  0.00  0.00    +0.176 C 
BRANCH   6   7
ATOM      7  C   GLY A   5       6.168 -46.778  10.685  0.00  0.00    +0.243 C 
ATOM      8  N   THR A   6       6.065 -47.129  11.963  0.00  0.00    -0.295 N 
ATOM      9  H   THR A   6       6.913 -47.088  12.563  0.00  0.00    +0.150 HD
ATOM     10  O   GLY A   5       5.226 -46.841   9.895  0.00  0.00    -0.273 OA
BRANCH   8  11
ATOM     11  CA  THR A   6       4.815 -47.567  12.551  0.00  0.00    +0.176 C 
BRANCH  11  12
ATOM     12  C   THR A   6       4.664 -46.971  13.937  0.00  0.00    +0.243 C 
ATOM     13  O   THR A   6       5.584 -47.078  14.762  0.00  0.00    -0.273 OA
ATOM     14  N   VAL A   7       3.513 -46.366  14.221  0.00  0.00    -0.298 N 
ATOM     15  H   VAL A   7       2.784 -46.267  13.485  0.00  0.00    +0.150 HD
BRANCH  14  16
ATOM     16  CA  VAL A   7       3.271 -45.844  15.551  0.00  0.00    +0.137 C 
BRANCH  16  17
ATOM     17  CB  VAL A   7       2.248 -44.707  15.557  0.00  0.00    +0.026 C 
ATOM     18  CG2 VAL A   7       2.103 -44.142  16.964  0.00  0.00    +0.002 C 
ATOM     19  CG1 VAL A   7       2.635 -43.587  14.573  0.00  0.00    +0.002 C 
ENDBRANCH  16  17
BRANCH  16  20
ATOM     20  C   VAL A   7       2.766 -46.963  16.462  0.00  0.00    +0.227 C 
ATOM     21  O   VAL A   7       1.893 -47.774  16.103  0.00  0.00    -0.286 OA
ENDBRANCH  16  20
ENDBRANCH  14  16
ENDBRANCH  11  12
BRANCH  11  22
ATOM     22  CB  THR A   6       4.828 -49.089  12.696  0.00  0.00    +0.137 C 
ATOM     23  CG2 THR A   6       3.537 -49.590  13.280  0.00  0.00    +0.034 C 
BRANCH  22  24
ATOM     24  OG1 THR A   6       5.089 -49.702  11.426  0.00  0.00    -0.382 OA
ATOM     25  HG1 THR A   6       5.969 -49.399  11.089  0.00  0.00    +0.210 HD
ENDBRANCH  22  24
ENDBRANCH  11  22
ENDBRANCH   8  11
ENDBRANCH   6   7
ENDBRANCH   4   6
ENDBRANCH   1   2
BRANCH   1  27
ATOM     26  C   THR A   3      10.600 -46.593   6.204  0.00  0.00    +0.243 C 
ATOM     27  N   GLN A   4      10.269 -47.731   6.806  0.00  0.00    -0.297 N 
ATOM     28  H   GLN A   4      11.015 -48.404   7.075  0.00  0.00    +0.150 HD
ATOM     29  O   THR A   3       9.772 -45.865   5.652  0.00  0.00    -0.273 OA
BRANCH  26  30
ATOM     30  CA  THR A   3      12.077 -46.233   6.206  0.00  0.00    +0.176 C 
BRANCH  30  32
ATOM     31  C   GLU A   2      13.540 -46.386   4.268  0.00  0.00    +0.241 C 
ATOM     32  N   THR A   3      12.521 -45.809   4.898  0.00  0.00    -0.295 N 
ATOM     33  H   THR A   3      12.025 -45.023   4.432  0.00  0.00    +0.150 HD
ATOM     34  O   GLU A   2      14.123 -47.391   4.699  0.00  0.00    -0.273 OA
BRANCH  31  35
ATOM     35  CA  GLU A   2      13.974 -45.750   2.945  0.00  0.00    +0.149 C 
BRANCH  35  37
ATOM     36  C   LEU A   1      16.137 -44.682   2.572  0.00  0.00    +0.238 C 
ATOM     37  N   GLU A   2      15.422 -45.733   2.950  0.00  0.00    -0.297 N 
ATOM     38  H   GLU A   2      15.926 -46.586   3.265  0.00  0.00    +0.150 HD
ATOM     39  O   LEU A   1      15.665 -43.714   2.013  0.00  0.00    -0.274 OA
BRANCH  36  40
ATOM     40  CA  LEU A   1      17.597 -44.744   2.946  0.00  0.00    +0.145 C 
BRANCH  40  41
ATOM     41  N   LEU A   1      18.387 -43.763   2.209  0.00  0.00    -0.238 NA
ATOM     42  H   LEU A   1      18.022 -42.792   2.135  0.00  0.00    +0.142 HD
ENDBRANCH  40  41
BRANCH  40  43
ATOM     43  CB  LEU A   1      17.597 -44.442   4.464  0.00  0.00    +0.026 C 
BRANCH  43  44
ATOM     44  CG  LEU A   1      18.861 -44.329   5.290  0.00  0.00    +0.002 C 
ATOM     45  CD2 LEU A   1      18.467 -44.032   6.733  0.00  0.00    +0.000 C 
ATOM     46  CD1 LEU A   1      19.645 -45.594   5.225  0.00  0.00    +0.000 C 
ENDBRANCH  43  44
ENDBRANCH  40  43
ENDBRANCH  36  40
ENDBRANCH  35  37
BRANCH  35  47
ATOM     47  CB  GLU A   2      13.437 -46.542   1.756  0.00  0.00    +0.041 C 
BRANCH  47  48
ATOM     48  CG  GLU A   2      11.931 -46.621   1.741  0.00  0.00    +0.116 C 
BRANCH  48  49
ATOM     49  CD  GLU A   2      11.397 -47.219   0.468  0.00  0.00    +0.365 C 
ATOM     50  OE2 GLU A   2      10.472 -48.050   0.557  0.00  0.00    -0.246 OA
ATOM     51  OE1 GLU A   2      11.897 -46.855  -0.619  0.00  0.00    -0.246 OA
ENDBRANCH  48  49
ENDBRANCH  47  48
ENDBRANCH  35  47
ENDBRANCH  31  35
ENDBRANCH  30  32
BRANCH  30  52
ATOM     52  CB  THR A   3      12.325 -45.097   7.215  0.00  0.00    +0.137 C 
ATOM     53  CG2 THR A   3      11.654 -45.390   8.563  0.00  0.00    +0.034 C 
BRANCH  52  54
ATOM     54  OG1 THR A   3      13.745 -44.942   7.384  0.00  0.00    -0.382 OA
ATOM     55  HG1 THR A   3      14.130 -45.788   7.724  0.00  0.00    +0.210 HD
ENDBRANCH  52  54
ENDBRANCH  30  52
ENDBRANCH  26  30
ENDBRANCH   1  27
BRANCH   1  56
ATOM     56  CB  GLN A   4       8.612 -49.516   6.870  0.00  0.00    +0.039 C 
BRANCH  56  57
ATOM     57  CG  GLN A   4       7.201 -49.922   7.187  0.00  0.00    +0.087 C 
BRANCH  57  58
ATOM     58  CD  GLN A   4       6.924 -51.349   6.796  0.00  0.00    +0.219 C 
ATOM     59  NE2 GLN A   4       6.187 -52.056   7.646  0.00  0.00    -0.329 N 
ATOM     60 HE21 GLN A   4       5.823 -51.611   8.513  0.00  0.00    +0.145 HD
ATOM     61 HE22 GLN A   4       5.974 -53.054   7.445  0.00  0.00    +0.145 HD
ATOM     62  OE1 GLN A   4       7.386 -51.827   5.745  0.00  0.00    -0.275 OA
ENDBRANCH  57  58
ENDBRANCH  56  57
ENDBRANCH   1  56
TORSDOF 27
REMARK  Name = ../refined-set-2016/4ghi/4ghi_pocket.pdb
REMARK  250 active torsions:
REMARK  status: ('A' for Active; 'I' for Inactive)
REMARK    1  A    between atoms: _1  and  _3
REMARK    2  A    between atoms: _3  and  _4
REMARK    3  A    between atoms: _3  and  _6
REMARK    4  A    between atoms: _6  and  _7
REMARK    5  A    between atoms: _13  and  _15
REMARK    6  A    between atoms: _15  and  _16
REMARK    7  A    between atoms: _15  and  _18
REMARK    8  A    between atoms: _18  and  _19
REMARK    9  A    between atoms: _22  and  _24
REMARK   10  A    between atoms: _24  and  _25
REMARK   11  A    between atoms: _24  and  _27
REMARK   12  A    between atoms: _27  and  _28
REMARK   13  A    between atoms: _30  and  _32
REMARK   14  A    between atoms: _32  and  _33
REMARK   15  A    between atoms: _32  and  _35
REMARK   16  A    between atoms: _35  and  _36
REMARK   17  A    between atoms: _36  and  _37
REMARK   18  A    between atoms: _40  and  _42
REMARK   19  A    between atoms: _42  and  _43
REMARK   20  A    between atoms: _42  and  _45
REMARK   21  A    between atoms: _45  and  _46
REMARK   22  A    between atoms: _51  and  _53
REMARK   23  A    between atoms: _53  and  _54
REMARK   24  A    between atoms: _53  and  _56
REMARK   25  A    between atoms: _56  and  _57
REMARK   26  A    between atoms: _59  and  _61
REMARK   27  A    between atoms: _61  and  _62
REMARK   28  A    between atoms: _61  and  _64
REMARK   29  A    between atoms: _64  and  _65
REMARK   30  A    between atoms: _65  and  _66
REMARK   31  A    between atoms: _68  and  _70
REMARK   32  A    between atoms: _70  and  _71
REMARK   33  A    between atoms: _70  and  _73
REMARK   34  A    between atoms: _73  and  _74
REMARK   35  A    between atoms: _77  and  _79
REMARK   36  A    between atoms: _79  and  _80
REMARK   37  A    between atoms: _79  and  _82
REMARK   38  A    between atoms: _82  and  _83
REMARK   39  A    between atoms: _83  and  _84
REMARK   40  A    between atoms: _86  and  _88
REMARK   41  A    between atoms: _88  and  _89
REMARK   42  A    between atoms: _88  and  _91
REMARK   43  A    between atoms: _91  and  _92
REMARK   44  A    between atoms: _92  and  _93
REMARK   45  A    between atoms: _93  and  _94
REMARK   46  A    between atoms: _94  and  _95
REMARK   47  A    between atoms: _99  and  _101
REMARK   48  A    between atoms: _101  and  _102
REMARK   49  A    between atoms: _101  and  _104
REMARK   50  A    between atoms: _104  and  _105
REMARK   51  A    between atoms: _111  and  _113
REMARK   52  A    between atoms: _113  and  _114
REMARK   53  A    between atoms: _113  and  _116
REMARK   54  A    between atoms: _116  and  _117
REMARK   55  A    between atoms: _120  and  _122
REMARK   56  A    between atoms: _122  and  _123
REMARK   57  A    between atoms: _122  and  _125
REMARK   58  A    between atoms: _125  and  _126
REMARK   59  A    between atoms: _131  and  _132
REMARK   60  A    between atoms: _134  and  _136
REMARK   61  A    between atoms: _136  and  _137
REMARK   62  A    between atoms: _136  and  _139
REMARK   63  A    between atoms: _141  and  _143
REMARK   64  A    between atoms: _143  and  _144
REMARK   65  A    between atoms: _143  and  _146
REMARK   66  A    between atoms: _146  and  _147
REMARK   67  A    between atoms: _150  and  _152
REMARK   68  A    between atoms: _152  and  _153
REMARK   69  A    between atoms: _152  and  _155
REMARK   70  A    between atoms: _155  and  _156
REMARK   71  A    between atoms: _159  and  _161
REMARK   72  A    between atoms: _161  and  _162
REMARK   73  A    between atoms: _161  and  _164
REMARK   74  A    between atoms: _164  and  _165
REMARK   75  A    between atoms: _168  and  _170
REMARK   76  A    between atoms: _170  and  _171
REMARK   77  A    between atoms: _170  and  _173
REMARK   78  A    between atoms: _173  and  _174
REMARK   79  A    between atoms: _179  and  _180
REMARK   80  A    between atoms: _182  and  _184
REMARK   81  A    between atoms: _184  and  _185
REMARK   82  A    between atoms: _184  and  _187
REMARK   83  A    between atoms: _187  and  _188
REMARK   84  A    between atoms: _191  and  _193
REMARK   85  A    between atoms: _193  and  _194
REMARK   86  A    between atoms: _193  and  _196
REMARK   87  A    between atoms: _196  and  _197
REMARK   88  A    between atoms: _199  and  _201
REMARK   89  A    between atoms: _201  and  _202
REMARK   90  A    between atoms: _205  and  _207
REMARK   91  A    between atoms: _207  and  _208
REMARK   92  A    between atoms: _207  and  _210
REMARK   93  A    between atoms: _210  and  _211
REMARK   94  A    between atoms: _216  and  _217
REMARK   95  A    between atoms: _219  and  _221
REMARK   96  A    between atoms: _221  and  _222
REMARK   97  A    between atoms: _221  and  _224
REMARK   98  A    between atoms: _224  and  _225
REMARK   99  A    between atoms: _225  and  _226
REMARK  100  A    between atoms: _229  and  _231
REMARK  101  A    between atoms: _231  and  _232
REMARK  102  A    between atoms: _231  and  _234
REMARK  103  A    between atoms: _234  and  _235
REMARK  104  A    between atoms: _241  and  _243
REMARK  105  A    between atoms: _243  and  _244
REMARK  106  A    between atoms: _243  and  _246
REMARK  107  A    between atoms: _246  and  _247
REMARK  108  A    between atoms: _252  and  _253
REMARK  109  A    between atoms: _255  and  _257
REMARK  110  A    between atoms: _257  and  _258
REMARK  111  A    between atoms: _257  and  _260
REMARK  112  A    between atoms: _260  and  _261
REMARK  113  A    between atoms: _266  and  _268
REMARK  114  A    between atoms: _268  and  _269
REMARK  115  A    between atoms: _268  and  _271
REMARK  116  A    between atoms: _271  and  _272
REMARK  117  A    between atoms: _277  and  _279
REMARK  118  A    between atoms: _279  and  _280
REMARK  119  A    between atoms: _279  and  _282
REMARK  120  A    between atoms: _282  and  _283
REMARK  121  A    between atoms: _283  and  _284
REMARK  122  A    between atoms: _286  and  _288
REMARK  123  A    between atoms: _288  and  _289
REMARK  124  A    between atoms: _288  and  _291
REMARK  125  A    between atoms: _291  and  _292
REMARK  126  A    between atoms: _295  and  _297
REMARK  127  A    between atoms: _297  and  _298
REMARK  128  A    between atoms: _297  and  _300
REMARK  129  A    between atoms: _300  and  _301
REMARK  130  A    between atoms: _301  and  _302
REMARK  131  A    between atoms: _302  and  _303
REMARK  132  A    between atoms: _303  and  _304
REMARK  133  A    between atoms: _308  and  _310
REMARK  134  A    between atoms: _310  and  _311
REMARK  135  A    between atoms: _310  and  _313
REMARK  136  A    between atoms: _313  and  _314
REMARK  137  A    between atoms: _316  and  _318
REMARK  138  A    between atoms: _318  and  _319
REMARK  139  A    between atoms: _318  and  _321
REMARK  140  A    between atoms: _321  and  _322
REMARK  141  A    between atoms: _327  and  _329
REMARK  142  A    between atoms: _329  and  _330
REMARK  143  A    between atoms: _329  and  _332
REMARK  144  A    between atoms: _332  and  _333
REMARK  145  A    between atoms: _333  and  _334
REMARK  146  A    between atoms: _339  and  _341
REMARK  147  A    between atoms: _341  and  _342
REMARK  148  A    between atoms: _341  and  _344
REMARK  149  A    between atoms: _344  and  _345
REMARK  150  A    between atoms: _350  and  _352
REMARK  151  A    between atoms: _352  and  _353
REMARK  152  A    between atoms: _352  and  _355
REMARK  153  A    between atoms: _355  and  _356
REMARK  154  A    between atoms: _359  and  _361
REMARK  155  A    between atoms: _361  and  _362
REMARK  156  A    between atoms: _361  and  _364
REMARK  157  A    between atoms: _366  and  _368
REMARK  158  A    between atoms: _368  and  _369
REMARK  159  A    between atoms: _368  and  _371
REMARK  160  A    between atoms: _371  and  _372
REMARK  161  A    between atoms: _372  and  _373
REMARK  162  A    between atoms: _378  and  _380
REMARK  163  A    between atoms: _380  and  _381
REMARK  164  A    between atoms: _380  and  _383
REMARK  165  A    between atoms: _386  and  _388
REMARK  166  A    between atoms: _388  and  _389
REMARK  167  A    between atoms: _388  and  _391
REMARK  168  A    between atoms: _394  and  _396
REMARK  169  A    between atoms: _396  and  _397
REMARK  170  A    between atoms: _396  and  _399
REMARK  171  A    between atoms: _399  and  _400
REMARK  172  A    between atoms: _402  and  _404
REMARK  173  A    between atoms: _404  and  _405
REMARK  174  A    between atoms: _407  and  _409
REMARK  175  A    between atoms: _409  and  _410
REMARK  176  A    between atoms: _409  and  _412
REMARK  177  A    between atoms: _412  and  _413
REMARK  178  A    between atoms: _418  and  _419
REMARK  179  A    between atoms: _421  and  _423
REMARK  180  A    between atoms: _423  and  _424
REMARK  181  A    between atoms: _423  and  _426
REMARK  182  A    between atoms: _426  and  _427
REMARK  183  A    between atoms: _427  and  _428
REMARK  184  A    between atoms: _428  and  _429
REMARK  185  A    between atoms: _438  and  _440
REMARK  186  A    between atoms: _440  and  _441
REMARK  187  A    between atoms: _440  and  _443
REMARK  188  A    between atoms: _443  and  _444
REMARK  189  A    between atoms: _444  and  _445
REMARK  190  A    between atoms: _447  and  _449
REMARK  191  A    between atoms: _449  and  _450
REMARK  192  A    between atoms: _449  and  _452
REMARK  193  A    between atoms: _452  and  _453
REMARK  194  A    between atoms: _456  and  _458
REMARK  195  A    between atoms: _458  and  _459
REMARK  196  A    between atoms: _458  and  _461
REMARK  197  A    between atoms: _464  and  _466
REMARK  198  A    between atoms: _466  and  _467
REMARK  199  A    between atoms: _466  and  _469
REMARK  200  A    between atoms: _469  and  _470
REMARK  201  A    between atoms: _473  and  _475
REMARK  202  A    between atoms: _475  and  _476
REMARK  203  A    between atoms: _475  and  _478
REMARK  204  A    between atoms: _478  and  _479
REMARK  205  A    between atoms: _479  and  _480
REMARK  206  A    between atoms: _483  and  _485
REMARK  207  A    between atoms: _485  and  _486
REMARK  208  A    between atoms: _485  and  _488
REMARK  209  A    between atoms: _488  and  _489
REMARK  210  A    between atoms: _492  and  _494
REMARK  211  A    between atoms: _494  and  _495
REMARK  212  A    between atoms: _494  and  _497
REMARK  213  A    between atoms: _497  and  _498
REMARK  214  A    between atoms: _498  and  _499
REMARK  215  A    between atoms: _504  and  _506
REMARK  216  A    between atoms: _506  and  _507
REMARK  217  A    between atoms: _509  and  _511
REMARK  218  A    between atoms: _511  and  _512
REMARK  219  A    between atoms: _511  and  _514
REMARK  220  A    between atoms: _514  and  _515
REMARK  221  A    between atoms: _518  and  _520
REMARK  222  A    between atoms: _520  and  _521
REMARK  223  A    between atoms: _520  and  _523
REMARK  224  A    between atoms: _526  and  _528
REMARK  225  A    between atoms: _528  and  _529
REMARK  226  A    between atoms: _528  and  _531
REMARK  227  A    between atoms: _533  and  _535
REMARK  228  A    between atoms: _535  and  _536
REMARK  229  A    between atoms: _535  and  _538
REMARK  230  A    between atoms: _538  and  _539
REMARK  231  A    between atoms: _542  and  _544
REMARK  232  A    between atoms: _544  and  _545
REMARK  233  A    between atoms: _544  and  _547
REMARK  234  A    between atoms: _547  and  _548
REMARK  235  A    between atoms: _548  and  _549
REMARK  236  A    between atoms: _551  and  _553
REMARK  237  A    between atoms: _553  and  _554
REMARK  238  A    between atoms: _553  and  _556
REMARK  239  A    between atoms: _558  and  _560
REMARK  240  A    between atoms: _560  and  _561
REMARK  241  A    between atoms: _560  and  _563
REMARK  242  A    between atoms: _566  and  _568
REMARK  243  A    between atoms: _568  and  _569
REMARK  244  A    between atoms: _568  and  _571
REMARK  245  A    between atoms: _571  and  _572
REMARK  246  A    between atoms: _577  and  _579
REMARK  247  A    between atoms: _579  and  _580
REMARK  248  A    between atoms: _579  and  _582
REMARK  249  A    between atoms: _582  and  _583
REMARK  250  A    between atoms: _588  and  _589
REMARK                            x       y       z     vdW  Elec       q    Type
REMARK                         _______ _______ _______ _____ _____    ______ ____
ROOT
ATOM      1  C   CYS A   4      12.041 -49.016  11.799  0.00  0.00    +0.242 C 
ATOM      2  O   CYS A   4      12.948 -49.491  12.494  0.00  0.00    -0.273 OA
ATOM      3  N   VAL A   5      11.731 -49.496  10.593  0.00  0.00    -0.297 N 
ATOM      4  H   VAL A   5      10.844 -49.197  10.141  0.00  0.00    +0.150 HD
ENDROOT
BRANCH   3   5
ATOM      5  CA  VAL A   5      12.607 -50.430   9.894  0.00  0.00    +0.149 C 
BRANCH   5   6
ATOM      6  C   VAL A   5      13.257 -49.634   8.737  0.00  0.00    +0.241 C 
ATOM      7  N   ASN A   6      14.571 -49.508   8.793  0.00  0.00    -0.297 N 
ATOM      8  H   ASN A   6      15.089 -50.051   9.513  0.00  0.00    +0.150 HD
ATOM      9  O   VAL A   5      12.570 -49.140   7.832  0.00  0.00    -0.273 OA
BRANCH   7  10
ATOM     10  CA  ASN A   6      15.331 -48.645   7.896  0.00  0.00    +0.158 C 
BRANCH  10  11
ATOM     11  C   ASN A   6      16.186 -49.500   6.986  0.00  0.00    +0.241 C 
ATOM     12  O   ASN A   6      16.830 -50.440   7.439  0.00  0.00    -0.273 OA
ATOM     13  N   TYR A   7      16.165 -49.237   5.684  0.00  0.00    -0.298 N 
ATOM     14  H   TYR A   7      15.565 -48.467   5.324  0.00  0.00    +0.150 HD
BRANCH  13  15
ATOM     15  CA  TYR A   7      16.975 -50.017   4.754  0.00  0.00    +0.141 C 
BRANCH  15  16
ATOM     16  C   TYR A   7      17.759 -49.103   3.832  0.00  0.00    +0.227 C 
ATOM     17  O   TYR A   7      17.193 -48.198   3.217  0.00  0.00    -0.286 OA
ENDBRANCH  15  16
BRANCH  15  18
ATOM     18  CB  TYR A   7      16.149 -51.080   3.974  0.00  0.00    +0.054 C 
BRANCH  18  19
ATOM     19  CG  TYR A   7      14.762 -50.657   3.502  0.00  0.00    -0.020 A 
ATOM     20  CD2 TYR A   7      13.706 -50.520   4.399  0.00  0.00    -0.001 A 
ATOM     21  CE2 TYR A   7      12.451 -50.126   3.983  0.00  0.00    +0.036 A 
ATOM     22  CZ  TYR A   7      12.214 -49.895   2.638  0.00  0.00    +0.134 A 
ATOM     23  CE1 TYR A   7      13.238 -50.035   1.718  0.00  0.00    +0.036 A 
ATOM     24  CD1 TYR A   7      14.505 -50.421   2.151  0.00  0.00    -0.001 A 
BRANCH  22  25
ATOM     25  OH  TYR A   7      10.953 -49.516   2.214  0.00  0.00    -0.506 OA
ATOM     26  HH  TYR A   7      11.006 -48.630   1.776  0.00  0.00    +0.292 HD
ENDBRANCH  22  25
ENDBRANCH  18  19
ENDBRANCH  15  18
ENDBRANCH  13  15
ENDBRANCH  10  11
BRANCH  10  27
ATOM     27  CB  ASN A   6      16.220 -47.735   8.743  0.00  0.00    +0.114 C 
BRANCH  27  28
ATOM     28  CG  ASN A   6      15.421 -47.018   9.822  0.00  0.00    +0.222 C 
ATOM     29  ND2 ASN A   6      15.658 -47.361  11.080  0.00  0.00    -0.329 N 
ATOM     30 HD21 ASN A   6      15.130 -46.905  11.852  0.00  0.00    +0.145 HD
ATOM     31 HD22 ASN A   6      16.372 -48.086  11.296  0.00  0.00    +0.145 HD
ATOM     32  OD1 ASN A   6      14.590 -46.169   9.519  0.00  0.00    -0.275 OA
ENDBRANCH  27  28
ENDBRANCH  10  27
ENDBRANCH   7  10
ENDBRANCH   5   6
BRANCH   5  33
ATOM     33  CB  VAL A   5      11.852 -51.651   9.337  0.00  0.00    +0.027 C 
ATOM     34  CG2 VAL A   5      11.004 -52.345  10.403  0.00  0.00    +0.002 C 
ATOM     35  CG1 VAL A   5      12.857 -52.635   8.757  0.00  0.00    +0.002 C 
ENDBRANCH   5  33
ENDBRANCH   3   5
BRANCH   1  36
ATOM     36  CA  CYS A   4      11.221 -47.831  12.240  0.00  0.00    +0.160 C 
BRANCH  36  38
ATOM     37  C   MET A   3       9.486 -47.969  13.924  0.00  0.00    +0.241 C 
ATOM     38  N   CYS A   4      10.780 -47.933  13.630  0.00  0.00    -0.296 N 
ATOM     39  H   CYS A   4      11.485 -47.978  14.394  0.00  0.00    +0.150 HD
ATOM     40  O   MET A   3       8.596 -47.796  13.072  0.00  0.00    -0.273 OA
BRANCH  37  41
ATOM     41  CA  MET A   3       9.128 -48.122  15.406  0.00  0.00    +0.149 C 
BRANCH  41  44
ATOM     42  C   ILE A   2       8.624 -45.928  16.407  0.00  0.00    +0.241 C 
ATOM     43  O   ILE A   2       9.742 -45.790  16.881  0.00  0.00    -0.273 OA
ATOM     44  N   MET A   3       8.233 -47.011  15.740  0.00  0.00    -0.297 N 
ATOM     45  H   MET A   3       7.239 -47.072  15.440  0.00  0.00    +0.150 HD
BRANCH  42  46
ATOM     46  CA  ILE A   2       7.566 -44.853  16.592  0.00  0.00    +0.148 C 
BRANCH  46  49
ATOM     47  C   CYS A   1       6.466 -44.745  18.777  0.00  0.00    +0.239 C 
ATOM     48  O   CYS A   1       5.397 -45.189  18.377  0.00  0.00    -0.274 OA
ATOM     49  N   ILE A   2       7.515 -44.505  17.996  0.00  0.00    -0.297 N 
ATOM     50  H   ILE A   2       8.345 -44.041  18.417  0.00  0.00    +0.150 HD
BRANCH  47  51
ATOM     51  CA  CYS A   1       6.643 -44.373  20.228  0.00  0.00    +0.156 C 
BRANCH  51  52
ATOM     52  N   CYS A   1       5.370 -44.530  20.918  0.00  0.00    -0.237 NA
ATOM     53  H   CYS A   1       4.605 -45.050  20.443  0.00  0.00    +0.142 HD
ENDBRANCH  51  52
BRANCH  51  54
ATOM     54  CB  CYS A   1       7.753 -45.225  20.849  0.00  0.00    +0.095 C 
ATOM     55  SG  CYS A   1       7.465 -46.999  20.842  0.00  0.00    -0.080 S 
ENDBRANCH  51  54
ENDBRANCH  47  51
ENDBRANCH  46  49
BRANCH  46  56
ATOM     56  CB  ILE A   2       7.922 -43.612  15.755  0.00  0.00    +0.027 C 
ATOM     57  CG2 ILE A   2       8.188 -44.001  14.306  0.00  0.00    +0.002 C 
BRANCH  56  58
ATOM     58  CG1 ILE A   2       6.784 -42.594  15.829  0.00  0.00    +0.002 C 
ATOM     59  CD1 ILE A   2       7.149 -41.193  15.421  0.00  0.00    +0.000 C 
ENDBRANCH  56  58
ENDBRANCH  46  56
ENDBRANCH  42  46
ENDBRANCH  41  44
BRANCH  41  60
ATOM     60  CB  MET A   3       8.434 -49.471  15.712  0.00  0.00    +0.041 C 
BRANCH  60  61
ATOM     61  CG  MET A   3       9.283 -50.763  15.604  0.00  0.00    +0.060 C 
BRANCH  61  62
ATOM     62  SD  MET A   3      10.763 -50.875  16.609  0.00  0.00    -0.139 S 
ATOM     63  CE  MET A   3      11.942 -51.416  15.360  0.00  0.00    +0.069 C 
ENDBRANCH  61  62
ENDBRANCH  60  61
ENDBRANCH  41  60
ENDBRANCH  37  41
ENDBRANCH  36  38
BRANCH  36  64
ATOM     64  CB  CYS A   4      12.037 -46.578  12.024  0.00  0.00    +0.098 C 
ATOM     65  SG  CYS A   4      11.130 -45.045  12.209  0.00  0.00    -0.080 S 
ENDBRANCH  36  64
ENDBRANCH   1  36
TORSDOF 27
REMARK  Name = ../refined-set-2016/4ghi/4ghi_pocket.pdb
REMARK  250 active torsions:
REMARK  status: ('A' for Active; 'I' for Inactive)
REMARK    1  A    between atoms: _1  and  _3
REMARK    2  A    between atoms: _3  and  _4
REMARK    3  A    between atoms: _3  and  _6
REMARK    4  A    between atoms: _6  and  _7
REMARK    5  A    between atoms: _13  and  _15
REMARK    6  A    between atoms: _15  and  _16
REMARK    7  A    between atoms: _15  and  _18
REMARK    8  A    between atoms: _18  and  _19
REMARK    9  A    between atoms: _22  and  _24
REMARK   10  A    between atoms: _24  and  _25
REMARK   11  A    between atoms: _24  and  _27
REMARK   12  A    between atoms: _27  and  _28
REMARK   13  A    between atoms: _30  and  _32
REMARK   14  A    between atoms: _32  and  _33
REMARK   15  A    between atoms: _32  and  _35
REMARK   16  A    between atoms: _35  and  _36
REMARK   17  A    between atoms: _36  and  _37
REMARK   18  A    between atoms: _40  and  _42
REMARK   19  A    between atoms: _42  and  _43
REMARK   20  A    between atoms: _42  and  _45
REMARK   21  A    between atoms: _45  and  _46
REMARK   22  A    between atoms: _51  and  _53
REMARK   23  A    between atoms: _53  and  _54
REMARK   24  A    between atoms: _53  and  _56
REMARK   25  A    between atoms: _56  and  _57
REMARK   26  A    between atoms: _59  and  _61
REMARK   27  A    between atoms: _61  and  _62
REMARK   28  A    between atoms: _61  and  _64
REMARK   29  A    between atoms: _64  and  _65
REMARK   30  A    between atoms: _65  and  _66
REMARK   31  A    between atoms: _68  and  _70
REMARK   32  A    between atoms: _70  and  _71
REMARK   33  A    between atoms: _70  and  _73
REMARK   34  A    between atoms: _73  and  _74
REMARK   35  A    between atoms: _77  and  _79
REMARK   36  A    between atoms: _79  and  _80
REMARK   37  A    between atoms: _79  and  _82
REMARK   38  A    between atoms: _82  and  _83
REMARK   39  A    between atoms: _83  and  _84
REMARK   40  A    between atoms: _86  and  _88
REMARK   41  A    between atoms: _88  and  _89
REMARK   42  A    between atoms: _88  and  _91
REMARK   43  A    between atoms: _91  and  _92
REMARK   44  A    between atoms: _92  and  _93
REMARK   45  A    between atoms: _93  and  _94
REMARK   46  A    between atoms: _94  and  _95
REMARK   47  A    between atoms: _99  and  _101
REMARK   48  A    between atoms: _101  and  _102
REMARK   49  A    between atoms: _101  and  _104
REMARK   50  A    between atoms: _104  and  _105
REMARK   51  A    between atoms: _111  and  _113
REMARK   52  A    between atoms: _113  and  _114
REMARK   53  A    between atoms: _113  and  _116
REMARK   54  A    between atoms: _116  and  _117
REMARK   55  A    between atoms: _120  and  _122
REMARK   56  A    between atoms: _122  and  _123
REMARK   57  A    between atoms: _122  and  _125
REMARK   58  A    between atoms: _125  and  _126
REMARK   59  A    between atoms: _131  and  _132
REMARK   60  A    between atoms: _134  and  _136
REMARK   61  A    between atoms: _136  and  _137
REMARK   62  A    between atoms: _136  and  _139
REMARK   63  A    between atoms: _141  and  _143
REMARK   64  A    between atoms: _143  and  _144
REMARK   65  A    between atoms: _143  and  _146
REMARK   66  A    between atoms: _146  and  _147
REMARK   67  A    between atoms: _150  and  _152
REMARK   68  A    between atoms: _152  and  _153
REMARK   69  A    between atoms: _152  and  _155
REMARK   70  A    between atoms: _155  and  _156
REMARK   71  A    between atoms: _159  and  _161
REMARK   72  A    between atoms: _161  and  _162
REMARK   73  A    between atoms: _161  and  _164
REMARK   74  A    between atoms: _164  and  _165
REMARK   75  A    between atoms: _168  and  _170
REMARK   76  A    between atoms: _170  and  _171
REMARK   77  A    between atoms: _170  and  _173
REMARK   78  A    between atoms: _173  and  _174
REMARK   79  A    between atoms: _179  and  _180
REMARK   80  A    between atoms: _182  and  _184
REMARK   81  A    between atoms: _184  and  _185
REMARK   82  A    between atoms: _184  and  _187
REMARK   83  A    between atoms: _187  and  _188
REMARK   84  A    between atoms: _191  and  _193
REMARK   85  A    between atoms: _193  and  _194
REMARK   86  A    between atoms: _193  and  _196
REMARK   87  A    between atoms: _196  and  _197
REMARK   88  A    between atoms: _199  and  _201
REMARK   89  A    between atoms: _201  and  _202
REMARK   90  A    between atoms: _205  and  _207
REMARK   91  A    between atoms: _207  and  _208
REMARK   92  A    between atoms: _207  and  _210
REMARK   93  A    between atoms: _210  and  _211
REMARK   94  A    between atoms: _216  and  _217
REMARK   95  A    between atoms: _219  and  _221
REMARK   96  A    between atoms: _221  and  _222
REMARK   97  A    between atoms: _221  and  _224
REMARK   98  A    between atoms: _224  and  _225
REMARK   99  A    between atoms: _225  and  _226
REMARK  100  A    between atoms: _229  and  _231
REMARK  101  A    between atoms: _231  and  _232
REMARK  102  A    between atoms: _231  and  _234
REMARK  103  A    between atoms: _234  and  _235
REMARK  104  A    between atoms: _241  and  _243
REMARK  105  A    between atoms: _243  and  _244
REMARK  106  A    between atoms: _243  and  _246
REMARK  107  A    between atoms: _246  and  _247
REMARK  108  A    between atoms: _252  and  _253
REMARK  109  A    between atoms: _255  and  _257
REMARK  110  A    between atoms: _257  and  _258
REMARK  111  A    between atoms: _257  and  _260
REMARK  112  A    between atoms: _260  and  _261
REMARK  113  A    between atoms: _266  and  _268
REMARK  114  A    between atoms: _268  and  _269
REMARK  115  A    between atoms: _268  and  _271
REMARK  116  A    between atoms: _271  and  _272
REMARK  117  A    between atoms: _277  and  _279
REMARK  118  A    between atoms: _279  and  _280
REMARK  119  A    between atoms: _279  and  _282
REMARK  120  A    between atoms: _282  and  _283
REMARK  121  A    between atoms: _283  and  _284
REMARK  122  A    between atoms: _286  and  _288
REMARK  123  A    between atoms: _288  and  _289
REMARK  124  A    between atoms: _288  and  _291
REMARK  125  A    between atoms: _291  and  _292
REMARK  126  A    between atoms: _295  and  _297
REMARK  127  A    between atoms: _297  and  _298
REMARK  128  A    between atoms: _297  and  _300
REMARK  129  A    between atoms: _300  and  _301
REMARK  130  A    between atoms: _301  and  _302
REMARK  131  A    between atoms: _302  and  _303
REMARK  132  A    between atoms: _303  and  _304
REMARK  133  A    between atoms: _308  and  _310
REMARK  134  A    between atoms: _310  and  _311
REMARK  135  A    between atoms: _310  and  _313
REMARK  136  A    between atoms: _313  and  _314
REMARK  137  A    between atoms: _316  and  _318
REMARK  138  A    between atoms: _318  and  _319
REMARK  139  A    between atoms: _318  and  _321
REMARK  140  A    between atoms: _321  and  _322
REMARK  141  A    between atoms: _327  and  _329
REMARK  142  A    between atoms: _329  and  _330
REMARK  143  A    between atoms: _329  and  _332
REMARK  144  A    between atoms: _332  and  _333
REMARK  145  A    between atoms: _333  and  _334
REMARK  146  A    between atoms: _339  and  _341
REMARK  147  A    between atoms: _341  and  _342
REMARK  148  A    between atoms: _341  and  _344
REMARK  149  A    between atoms: _344  and  _345
REMARK  150  A    between atoms: _350  and  _352
REMARK  151  A    between atoms: _352  and  _353
REMARK  152  A    between atoms: _352  and  _355
REMARK  153  A    between atoms: _355  and  _356
REMARK  154  A    between atoms: _359  and  _361
REMARK  155  A    between atoms: _361  and  _362
REMARK  156  A    between atoms: _361  and  _364
REMARK  157  A    between atoms: _366  and  _368
REMARK  158  A    between atoms: _368  and  _369
REMARK  159  A    between atoms: _368  and  _371
REMARK  160  A    between atoms: _371  and  _372
REMARK  161  A    between atoms: _372  and  _373
REMARK  162  A    between atoms: _378  and  _380
REMARK  163  A    between atoms: _380  and  _381
REMARK  164  A    between atoms: _380  and  _383
REMARK  165  A    between atoms: _386  and  _388
REMARK  166  A    between atoms: _388  and  _389
REMARK  167  A    between atoms: _388  and  _391
REMARK  168  A    between atoms: _394  and  _396
REMARK  169  A    between atoms: _396  and  _397
REMARK  170  A    between atoms: _396  and  _399
REMARK  171  A    between atoms: _399  and  _400
REMARK  172  A    between atoms: _402  and  _404
REMARK  173  A    between atoms: _404  and  _405
REMARK  174  A    between atoms: _407  and  _409
REMARK  175  A    between atoms: _409  and  _410
REMARK  176  A    between atoms: _409  and  _412
REMARK  177  A    between atoms: _412  and  _413
REMARK  178  A    between atoms: _418  and  _419
REMARK  179  A    between atoms: _421  and  _423
REMARK  180  A    between atoms: _423  and  _424
REMARK  181  A    between atoms: _423  and  _426
REMARK  182  A    between atoms: _426  and  _427
REMARK  183  A    between atoms: _427  and  _428
REMARK  184  A    between atoms: _428  and  _429
REMARK  185  A    between atoms: _438  and  _440
REMARK  186  A    between atoms: _440  and  _441
REMARK  187  A    between atoms: _440  and  _443
REMARK  188  A    between atoms: _443  and  _444
REMARK  189  A    between atoms: _444  and  _445
REMARK  190  A    between atoms: _447  and  _449
REMARK  191  A    between atoms: _449  and  _450
REMARK  192  A    between atoms: _449  and  _452
REMARK  193  A    between atoms: _452  and  _453
REMARK  194  A    between atoms: _456  and  _458
REMARK  195  A    between atoms: _458  and  _459
REMARK  196  A    between atoms: _458  and  _461
REMARK  197  A    between atoms: _464  and  _466
REMARK  198  A    between atoms: _466  and  _467
REMARK  199  A    between atoms: _466  and  _469
REMARK  200  A    between atoms: _469  and  _470
REMARK  201  A    between atoms: _473  and  _475
REMARK  202  A    between atoms: _475  and  _476
REMARK  203  A    between atoms: _475  and  _478
REMARK  204  A    between atoms: _478  and  _479
REMARK  205  A    between atoms: _479  and  _480
REMARK  206  A    between atoms: _483  and  _485
REMARK  207  A    between atoms: _485  and  _486
REMARK  208  A    between atoms: _485  and  _488
REMARK  209  A    between atoms: _488  and  _489
REMARK  210  A    between atoms: _492  and  _494
REMARK  211  A    between atoms: _494  and  _495
REMARK  212  A    between atoms: _494  and  _497
REMARK  213  A    between atoms: _497  and  _498
REMARK  214  A    between atoms: _498  and  _499
REMARK  215  A    between atoms: _504  and  _506
REMARK  216  A    between atoms: _506  and  _507
REMARK  217  A    between atoms: _509  and  _511
REMARK  218  A    between atoms: _511  and  _512
REMARK  219  A    between atoms: _511  and  _514
REMARK  220  A    between atoms: _514  and  _515
REMARK  221  A    between atoms: _518  and  _520
REMARK  222  A    between atoms: _520  and  _521
REMARK  223  A    between atoms: _520  and  _523
REMARK  224  A    between atoms: _526  and  _528
REMARK  225  A    between atoms: _528  and  _529
REMARK  226  A    between atoms: _528  and  _531
REMARK  227  A    between atoms: _533  and  _535
REMARK  228  A    between atoms: _535  and  _536
REMARK  229  A    between atoms: _535  and  _538
REMARK  230  A    between atoms: _538  and  _539
REMARK  231  A    between atoms: _542  and  _544
REMARK  232  A    between atoms: _544  and  _545
REMARK  233  A    between atoms: _544  and  _547
REMARK  234  A    between atoms: _547  and  _548
REMARK  235  A    between atoms: _548  and  _549
REMARK  236  A    between atoms: _551  and  _553
REMARK  237  A    between atoms: _553  and  _554
REMARK  238  A    between atoms: _553  and  _556
REMARK  239  A    between atoms: _558  and  _560
REMARK  240  A    between atoms: _560  and  _561
REMARK  241  A    between atoms: _560  and  _563
REMARK  242  A    between atoms: _566  and  _568
REMARK  243  A    between atoms: _568  and  _569
REMARK  244  A    between atoms: _568  and  _571
REMARK  245  A    between atoms: _571  and  _572
REMARK  246  A    between atoms: _577  and  _579
REMARK  247  A    between atoms: _579  and  _580
REMARK  248  A    between atoms: _579  and  _582
REMARK  249  A    between atoms: _582  and  _583
REMARK  250  A    between atoms: _588  and  _589
REMARK                            x       y       z     vdW  Elec       q    Type
REMARK                         _______ _______ _______ _____ _____    ______ ____
ROOT
ATOM      1  O   HOH     1       8.989 -38.913   0.516  0.00  0.00    +0.000 OA
ENDROOT
TORSDOF 0
REMARK  Name = ../refined-set-2016/4ghi/4ghi_pocket.pdb
REMARK  250 active torsions:
REMARK  status: ('A' for Active; 'I' for Inactive)
REMARK    1  A    between atoms: _1  and  _3
REMARK    2  A    between atoms: _3  and  _4
REMARK    3  A    between atoms: _3  and  _6
REMARK    4  A    between atoms: _6  and  _7
REMARK    5  A    between atoms: _13  and  _15
REMARK    6  A    between atoms: _15  and  _16
REMARK    7  A    between atoms: _15  and  _18
REMARK    8  A    between atoms: _18  and  _19
REMARK    9  A    between atoms: _22  and  _24
REMARK   10  A    between atoms: _24  and  _25
REMARK   11  A    between atoms: _24  and  _27
REMARK   12  A    between atoms: _27  and  _28
REMARK   13  A    between atoms: _30  and  _32
REMARK   14  A    between atoms: _32  and  _33
REMARK   15  A    between atoms: _32  and  _35
REMARK   16  A    between atoms: _35  and  _36
REMARK   17  A    between atoms: _36  and  _37
REMARK   18  A    between atoms: _40  and  _42
REMARK   19  A    between atoms: _42  and  _43
REMARK   20  A    between atoms: _42  and  _45
REMARK   21  A    between atoms: _45  and  _46
REMARK   22  A    between atoms: _51  and  _53
REMARK   23  A    between atoms: _53  and  _54
REMARK   24  A    between atoms: _53  and  _56
REMARK   25  A    between atoms: _56  and  _57
REMARK   26  A    between atoms: _59  and  _61
REMARK   27  A    between atoms: _61  and  _62
REMARK   28  A    between atoms: _61  and  _64
REMARK   29  A    between atoms: _64  and  _65
REMARK   30  A    between atoms: _65  and  _66
REMARK   31  A    between atoms: _68  and  _70
REMARK   32  A    between atoms: _70  and  _71
REMARK   33  A    between atoms: _70  and  _73
REMARK   34  A    between atoms: _73  and  _74
REMARK   35  A    between atoms: _77  and  _79
REMARK   36  A    between atoms: _79  and  _80
REMARK   37  A    between atoms: _79  and  _82
REMARK   38  A    between atoms: _82  and  _83
REMARK   39  A    between atoms: _83  and  _84
REMARK   40  A    between atoms: _86  and  _88
REMARK   41  A    between atoms: _88  and  _89
REMARK   42  A    between atoms: _88  and  _91
REMARK   43  A    between atoms: _91  and  _92
REMARK   44  A    between atoms: _92  and  _93
REMARK   45  A    between atoms: _93  and  _94
REMARK   46  A    between atoms: _94  and  _95
REMARK   47  A    between atoms: _99  and  _101
REMARK   48  A    between atoms: _101  and  _102
REMARK   49  A    between atoms: _101  and  _104
REMARK   50  A    between atoms: _104  and  _105
REMARK   51  A    between atoms: _111  and  _113
REMARK   52  A    between atoms: _113  and  _114
REMARK   53  A    between atoms: _113  and  _116
REMARK   54  A    between atoms: _116  and  _117
REMARK   55  A    between atoms: _120  and  _122
REMARK   56  A    between atoms: _122  and  _123
REMARK   57  A    between atoms: _122  and  _125
REMARK   58  A    between atoms: _125  and  _126
REMARK   59  A    between atoms: _131  and  _132
REMARK   60  A    between atoms: _134  and  _136
REMARK   61  A    between atoms: _136  and  _137
REMARK   62  A    between atoms: _136  and  _139
REMARK   63  A    between atoms: _141  and  _143
REMARK   64  A    between atoms: _143  and  _144
REMARK   65  A    between atoms: _143  and  _146
REMARK   66  A    between atoms: _146  and  _147
REMARK   67  A    between atoms: _150  and  _152
REMARK   68  A    between atoms: _152  and  _153
REMARK   69  A    between atoms: _152  and  _155
REMARK   70  A    between atoms: _155  and  _156
REMARK   71  A    between atoms: _159  and  _161
REMARK   72  A    between atoms: _161  and  _162
REMARK   73  A    between atoms: _161  and  _164
REMARK   74  A    between atoms: _164  and  _165
REMARK   75  A    between atoms: _168  and  _170
REMARK   76  A    between atoms: _170  and  _171
REMARK   77  A    between atoms: _170  and  _173
REMARK   78  A    between atoms: _173  and  _174
REMARK   79  A    between atoms: _179  and  _180
REMARK   80  A    between atoms: _182  and  _184
REMARK   81  A    between atoms: _184  and  _185
REMARK   82  A    between atoms: _184  and  _187
REMARK   83  A    between atoms: _187  and  _188
REMARK   84  A    between atoms: _191  and  _193
REMARK   85  A    between atoms: _193  and  _194
REMARK   86  A    between atoms: _193  and  _196
REMARK   87  A    between atoms: _196  and  _197
REMARK   88  A    between atoms: _199  and  _201
REMARK   89  A    between atoms: _201  and  _202
REMARK   90  A    between atoms: _205  and  _207
REMARK   91  A    between atoms: _207  and  _208
REMARK   92  A    between atoms: _207  and  _210
REMARK   93  A    between atoms: _210  and  _211
REMARK   94  A    between atoms: _216  and  _217
REMARK   95  A    between atoms: _219  and  _221
REMARK   96  A    between atoms: _221  and  _222
REMARK   97  A    between atoms: _221  and  _224
REMARK   98  A    between atoms: _224  and  _225
REMARK   99  A    between atoms: _225  and  _226
REMARK  100  A    between atoms: _229  and  _231
REMARK  101  A    between atoms: _231  and  _232
REMARK  102  A    between atoms: _231  and  _234
REMARK  103  A    between atoms: _234  and  _235
REMARK  104  A    between atoms: _241  and  _243
REMARK  105  A    between atoms: _243  and  _244
REMARK  106  A    between atoms: _243  and  _246
REMARK  107  A    between atoms: _246  and  _247
REMARK  108  A    between atoms: _252  and  _253
REMARK  109  A    between atoms: _255  and  _257
REMARK  110  A    between atoms: _257  and  _258
REMARK  111  A    between atoms: _257  and  _260
REMARK  112  A    between atoms: _260  and  _261
REMARK  113  A    between atoms: _266  and  _268
REMARK  114  A    between atoms: _268  and  _269
REMARK  115  A    between atoms: _268  and  _271
REMARK  116  A    between atoms: _271  and  _272
REMARK  117  A    between atoms: _277  and  _279
REMARK  118  A    between atoms: _279  and  _280
REMARK  119  A    between atoms: _279  and  _282
REMARK  120  A    between atoms: _282  and  _283
REMARK  121  A    between atoms: _283  and  _284
REMARK  122  A    between atoms: _286  and  _288
REMARK  123  A    between atoms: _288  and  _289
REMARK  124  A    between atoms: _288  and  _291
REMARK  125  A    between atoms: _291  and  _292
REMARK  126  A    between atoms: _295  and  _297
REMARK  127  A    between atoms: _297  and  _298
REMARK  128  A    between atoms: _297  and  _300
REMARK  129  A    between atoms: _300  and  _301
REMARK  130  A    between atoms: _301  and  _302
REMARK  131  A    between atoms: _302  and  _303
REMARK  132  A    between atoms: _303  and  _304
REMARK  133  A    between atoms: _308  and  _310
REMARK  134  A    between atoms: _310  and  _311
REMARK  135  A    between atoms: _310  and  _313
REMARK  136  A    between atoms: _313  and  _314
REMARK  137  A    between atoms: _316  and  _318
REMARK  138  A    between atoms: _318  and  _319
REMARK  139  A    between atoms: _318  and  _321
REMARK  140  A    between atoms: _321  and  _322
REMARK  141  A    between atoms: _327  and  _329
REMARK  142  A    between atoms: _329  and  _330
REMARK  143  A    between atoms: _329  and  _332
REMARK  144  A    between atoms: _332  and  _333
REMARK  145  A    between atoms: _333  and  _334
REMARK  146  A    between atoms: _339  and  _341
REMARK  147  A    between atoms: _341  and  _342
REMARK  148  A    between atoms: _341  and  _344
REMARK  149  A    between atoms: _344  and  _345
REMARK  150  A    between atoms: _350  and  _352
REMARK  151  A    between atoms: _352  and  _353
REMARK  152  A    between atoms: _352  and  _355
REMARK  153  A    between atoms: _355  and  _356
REMARK  154  A    between atoms: _359  and  _361
REMARK  155  A    between atoms: _361  and  _362
REMARK  156  A    between atoms: _361  and  _364
REMARK  157  A    between atoms: _366  and  _368
REMARK  158  A    between atoms: _368  and  _369
REMARK  159  A    between atoms: _368  and  _371
REMARK  160  A    between atoms: _371  and  _372
REMARK  161  A    between atoms: _372  and  _373
REMARK  162  A    between atoms: _378  and  _380
REMARK  163  A    between atoms: _380  and  _381
REMARK  164  A    between atoms: _380  and  _383
REMARK  165  A    between atoms: _386  and  _388
REMARK  166  A    between atoms: _388  and  _389
REMARK  167  A    between atoms: _388  and  _391
REMARK  168  A    between atoms: _394  and  _396
REMARK  169  A    between atoms: _396  and  _397
REMARK  170  A    between atoms: _396  and  _399
REMARK  171  A    between atoms: _399  and  _400
REMARK  172  A    between atoms: _402  and  _404
REMARK  173  A    between atoms: _404  and  _405
REMARK  174  A    between atoms: _407  and  _409
REMARK  175  A    between atoms: _409  and  _410
REMARK  176  A    between atoms: _409  and  _412
REMARK  177  A    between atoms: _412  and  _413
REMARK  178  A    between atoms: _418  and  _419
REMARK  179  A    between atoms: _421  and  _423
REMARK  180  A    between atoms: _423  and  _424
REMARK  181  A    between atoms: _423  and  _426
REMARK  182  A    between atoms: _426  and  _427
REMARK  183  A    between atoms: _427  and  _428
REMARK  184  A    between atoms: _428  and  _429
REMARK  185  A    between atoms: _438  and  _440
REMARK  186  A    between atoms: _440  and  _441
REMARK  187  A    between atoms: _440  and  _443
REMARK  188  A    between atoms: _443  and  _444
REMARK  189  A    between atoms: _444  and  _445
REMARK  190  A    between atoms: _447  and  _449
REMARK  191  A    between atoms: _449  and  _450
REMARK  192  A    between atoms: _449  and  _452
REMARK  193  A    between atoms: _452  and  _453
REMARK  194  A    between atoms: _456  and  _458
REMARK  195  A    between atoms: _458  and  _459
REMARK  196  A    between atoms: _458  and  _461
REMARK  197  A    between atoms: _464  and  _466
REMARK  198  A    between atoms: _466  and  _467
REMARK  199  A    between atoms: _466  and  _469
REMARK  200  A    between atoms: _469  and  _470
REMARK  201  A    between atoms: _473  and  _475
REMARK  202  A    between atoms: _475  and  _476
REMARK  203  A    between atoms: _475  and  _478
REMARK  204  A    between atoms: _478  and  _479
REMARK  205  A    between atoms: _479  and  _480
REMARK  206  A    between atoms: _483  and  _485
REMARK  207  A    between atoms: _485  and  _486
REMARK  208  A    between atoms: _485  and  _488
REMARK  209  A    between atoms: _488  and  _489
REMARK  210  A    between atoms: _492  and  _494
REMARK  211  A    between atoms: _494  and  _495
REMARK  212  A    between atoms: _494  and  _497
REMARK  213  A    between atoms: _497  and  _498
REMARK  214  A    between atoms: _498  and  _499
REMARK  215  A    between atoms: _504  and  _506
REMARK  216  A    between atoms: _506  and  _507
REMARK  217  A    between atoms: _509  and  _511
REMARK  218  A    between atoms: _511  and  _512
REMARK  219  A    between atoms: _511  and  _514
REMARK  220  A    between atoms: _514  and  _515
REMARK  221  A    between atoms: _518  and  _520
REMARK  222  A    between atoms: _520  and  _521
REMARK  223  A    between atoms: _520  and  _523
REMARK  224  A    between atoms: _526  and  _528
REMARK  225  A    between atoms: _528  and  _529
REMARK  226  A    between atoms: _528  and  _531
REMARK  227  A    between atoms: _533  and  _535
REMARK  228  A    between atoms: _535  and  _536
REMARK  229  A    between atoms: _535  and  _538
REMARK  230  A    between atoms: _538  and  _539
REMARK  231  A    between atoms: _542  and  _544
REMARK  232  A    between atoms: _544  and  _545
REMARK  233  A    between atoms: _544  and  _547
REMARK  234  A    between atoms: _547  and  _548
REMARK  235  A    between atoms: _548  and  _549
REMARK  236  A    between atoms: _551  and  _553
REMARK  237  A    between atoms: _553  and  _554
REMARK  238  A    between atoms: _553  and  _556
REMARK  239  A    between atoms: _558  and  _560
REMARK  240  A    between atoms: _560  and  _561
REMARK  241  A    between atoms: _560  and  _563
REMARK  242  A    between atoms: _566  and  _568
REMARK  243  A    between atoms: _568  and  _569
REMARK  244  A    between atoms: _568  and  _571
REMARK  245  A    between atoms: _571  and  _572
REMARK  246  A    between atoms: _577  and  _579
REMARK  247  A    between atoms: _579  and  _580
REMARK  248  A    between atoms: _579  and  _582
REMARK  249  A    between atoms: _582  and  _583
REMARK  250  A    between atoms: _588  and  _589
REMARK                            x       y       z     vdW  Elec       q    Type
REMARK                         _______ _______ _______ _____ _____    ______ ____
ROOT
ATOM      1  O   HOH     1       6.766 -37.056   1.035  0.00  0.00    +0.000 OA
ENDROOT
TORSDOF 0
