REMARK  Name = ../refined-set-2016/2fzg/2fzg_pocket.pdb
REMARK  233 active torsions:
REMARK  status: ('A' for Active; 'I' for Inactive)
REMARK    1  A    between atoms: _1  and  _3
REMARK    2  A    between atoms: _3  and  _4
REMARK    3  A    between atoms: _3  and  _6
REMARK    4  A    between atoms: _6  and  _7
REMARK    5  A    between atoms: _13  and  _15
REMARK    6  A    between atoms: _15  and  _16
REMARK    7  A    between atoms: _15  and  _18
REMARK    8  A    between atoms: _18  and  _19
REMARK    9  A    between atoms: _19  and  _20
REMARK   10  A    between atoms: _23  and  _25
REMARK   11  A    between atoms: _25  and  _26
REMARK   12  A    between atoms: _29  and  _31
REMARK   13  A    between atoms: _31  and  _32
REMARK   14  A    between atoms: _31  and  _34
REMARK   15  A    between atoms: _34  and  _35
REMARK   16  A    between atoms: _37  and  _39
REMARK   17  A    between atoms: _39  and  _40
REMARK   18  A    between atoms: _39  and  _42
REMARK   19  A    between atoms: _42  and  _43
REMARK   20  A    between atoms: _46  and  _48
REMARK   21  A    between atoms: _48  and  _49
REMARK   22  A    between atoms: _48  and  _51
REMARK   23  A    between atoms: _51  and  _52
REMARK   24  A    between atoms: _52  and  _53
REMARK   25  A    between atoms: _53  and  _54
REMARK   26  A    between atoms: _63  and  _65
REMARK   27  A    between atoms: _65  and  _66
REMARK   28  A    between atoms: _65  and  _68
REMARK   29  A    between atoms: _68  and  _69
REMARK   30  A    between atoms: _72  and  _74
REMARK   31  A    between atoms: _74  and  _75
REMARK   32  A    between atoms: _74  and  _77
REMARK   33  A    between atoms: _77  and  _78
REMARK   34  A    between atoms: _78  and  _79
REMARK   35  A    between atoms: _79  and  _80
REMARK   36  A    between atoms: _89  and  _91
REMARK   37  A    between atoms: _91  and  _92
REMARK   38  A    between atoms: _91  and  _94
REMARK   39  A    between atoms: _94  and  _95
REMARK   40  A    between atoms: _98  and  _100
REMARK   41  A    between atoms: _100  and  _101
REMARK   42  A    between atoms: _100  and  _103
REMARK   43  A    between atoms: _103  and  _104
REMARK   44  A    between atoms: _106  and  _108
REMARK   45  A    between atoms: _108  and  _109
REMARK   46  A    between atoms: _108  and  _111
REMARK   47  A    between atoms: _111  and  _112
REMARK   48  A    between atoms: _118  and  _120
REMARK   49  A    between atoms: _120  and  _121
REMARK   50  A    between atoms: _120  and  _123
REMARK   51  A    between atoms: _123  and  _124
REMARK   52  A    between atoms: _124  and  _125
REMARK   53  A    between atoms: _125  and  _126
REMARK   54  A    between atoms: _135  and  _137
REMARK   55  A    between atoms: _137  and  _138
REMARK   56  A    between atoms: _141  and  _143
REMARK   57  A    between atoms: _143  and  _144
REMARK   58  A    between atoms: _146  and  _148
REMARK   59  A    between atoms: _148  and  _149
REMARK   60  A    between atoms: _148  and  _151
REMARK   61  A    between atoms: _151  and  _152
REMARK   62  A    between atoms: _155  and  _157
REMARK   63  A    between atoms: _157  and  _158
REMARK   64  A    between atoms: _160  and  _162
REMARK   65  A    between atoms: _162  and  _163
REMARK   66  A    between atoms: _162  and  _165
REMARK   67  A    between atoms: _165  and  _166
REMARK   68  A    between atoms: _168  and  _170
REMARK   69  A    between atoms: _170  and  _171
REMARK   70  A    between atoms: _170  and  _173
REMARK   71  A    between atoms: _173  and  _174
REMARK   72  A    between atoms: _174  and  _175
REMARK   73  A    between atoms: _180  and  _182
REMARK   74  A    between atoms: _182  and  _183
REMARK   75  A    between atoms: _182  and  _185
REMARK   76  A    between atoms: _185  and  _186
REMARK   77  A    between atoms: _191  and  _193
REMARK   78  A    between atoms: _193  and  _194
REMARK   79  A    between atoms: _193  and  _196
REMARK   80  A    between atoms: _196  and  _197
REMARK   81  A    between atoms: _200  and  _202
REMARK   82  A    between atoms: _202  and  _203
REMARK   83  A    between atoms: _202  and  _205
REMARK   84  A    between atoms: _205  and  _206
REMARK   85  A    between atoms: _206  and  _207
REMARK   86  A    between atoms: _212  and  _214
REMARK   87  A    between atoms: _214  and  _215
REMARK   88  A    between atoms: _214  and  _217
REMARK   89  A    between atoms: _217  and  _218
REMARK   90  A    between atoms: _221  and  _223
REMARK   91  A    between atoms: _223  and  _224
REMARK   92  A    between atoms: _223  and  _226
REMARK   93  A    between atoms: _226  and  _227
REMARK   94  A    between atoms: _230  and  _232
REMARK   95  A    between atoms: _232  and  _233
REMARK   96  A    between atoms: _232  and  _235
REMARK   97  A    between atoms: _238  and  _240
REMARK   98  A    between atoms: _240  and  _241
REMARK   99  A    between atoms: _240  and  _243
REMARK  100  A    between atoms: _243  and  _244
REMARK  101  A    between atoms: _247  and  _249
REMARK  102  A    between atoms: _249  and  _250
REMARK  103  A    between atoms: _249  and  _252
REMARK  104  A    between atoms: _252  and  _253
REMARK  105  A    between atoms: _258  and  _259
REMARK  106  A    between atoms: _261  and  _263
REMARK  107  A    between atoms: _263  and  _264
REMARK  108  A    between atoms: _266  and  _268
REMARK  109  A    between atoms: _268  and  _269
REMARK  110  A    between atoms: _268  and  _271
REMARK  111  A    between atoms: _271  and  _272
REMARK  112  A    between atoms: _272  and  _273
REMARK  113  A    between atoms: _273  and  _274
REMARK  114  A    between atoms: _283  and  _285
REMARK  115  A    between atoms: _285  and  _286
REMARK  116  A    between atoms: _285  and  _288
REMARK  117  A    between atoms: _288  and  _289
REMARK  118  A    between atoms: _292  and  _294
REMARK  119  A    between atoms: _294  and  _295
REMARK  120  A    between atoms: _294  and  _297
REMARK  121  A    between atoms: _300  and  _302
REMARK  122  A    between atoms: _302  and  _303
REMARK  123  A    between atoms: _302  and  _305
REMARK  124  A    between atoms: _305  and  _306
REMARK  125  A    between atoms: _311  and  _313
REMARK  126  A    between atoms: _313  and  _314
REMARK  127  A    between atoms: _313  and  _316
REMARK  128  A    between atoms: _316  and  _317
REMARK  129  A    between atoms: _319  and  _321
REMARK  130  A    between atoms: _321  and  _322
REMARK  131  A    between atoms: _321  and  _324
REMARK  132  A    between atoms: _324  and  _325
REMARK  133  A    between atoms: _330  and  _331
REMARK  134  A    between atoms: _333  and  _335
REMARK  135  A    between atoms: _335  and  _336
REMARK  136  A    between atoms: _335  and  _338
REMARK  137  A    between atoms: _338  and  _339
REMARK  138  A    between atoms: _339  and  _340
REMARK  139  A    between atoms: _342  and  _344
REMARK  140  A    between atoms: _344  and  _345
REMARK  141  A    between atoms: _344  and  _347
REMARK  142  A    between atoms: _347  and  _348
REMARK  143  A    between atoms: _351  and  _353
REMARK  144  A    between atoms: _353  and  _354
REMARK  145  A    between atoms: _353  and  _356
REMARK  146  A    between atoms: _356  and  _357
REMARK  147  A    between atoms: _357  and  _358
REMARK  148  A    between atoms: _358  and  _359
REMARK  149  A    between atoms: _368  and  _370
REMARK  150  A    between atoms: _370  and  _371
REMARK  151  A    between atoms: _370  and  _373
REMARK  152  A    between atoms: _376  and  _378
REMARK  153  A    between atoms: _378  and  _379
REMARK  154  A    between atoms: _378  and  _381
REMARK  155  A    between atoms: _381  and  _382
REMARK  156  A    between atoms: _382  and  _383
REMARK  157  A    between atoms: _388  and  _390
REMARK  158  A    between atoms: _390  and  _391
REMARK  159  A    between atoms: _390  and  _393
REMARK  160  A    between atoms: _393  and  _394
REMARK  161  A    between atoms: _394  and  _395
REMARK  162  A    between atoms: _395  and  _396
REMARK  163  A    between atoms: _405  and  _407
REMARK  164  A    between atoms: _407  and  _408
REMARK  165  A    between atoms: _407  and  _410
REMARK  166  A    between atoms: _410  and  _411
REMARK  167  A    between atoms: _417  and  _418
REMARK  168  A    between atoms: _423  and  _425
REMARK  169  A    between atoms: _425  and  _426
REMARK  170  A    between atoms: _425  and  _428
REMARK  171  A    between atoms: _428  and  _429
REMARK  172  A    between atoms: _433  and  _434
REMARK  173  A    between atoms: _439  and  _441
REMARK  174  A    between atoms: _441  and  _442
REMARK  175  A    between atoms: _441  and  _444
REMARK  176  A    between atoms: _444  and  _445
REMARK  177  A    between atoms: _445  and  _446
REMARK  178  A    between atoms: _446  and  _447
REMARK  179  A    between atoms: _456  and  _458
REMARK  180  A    between atoms: _458  and  _459
REMARK  181  A    between atoms: _458  and  _461
REMARK  182  A    between atoms: _461  and  _462
REMARK  183  A    between atoms: _462  and  _463
REMARK  184  A    between atoms: _466  and  _468
REMARK  185  A    between atoms: _468  and  _469
REMARK  186  A    between atoms: _468  and  _471
REMARK  187  A    between atoms: _471  and  _472
REMARK  188  A    between atoms: _472  and  _473
REMARK  189  A    between atoms: _478  and  _480
REMARK  190  A    between atoms: _480  and  _481
REMARK  191  A    between atoms: _484  and  _486
REMARK  192  A    between atoms: _486  and  _487
REMARK  193  A    between atoms: _486  and  _489
REMARK  194  A    between atoms: _489  and  _490
REMARK  195  A    between atoms: _490  and  _491
REMARK  196  A    between atoms: _491  and  _492
REMARK  197  A    between atoms: _501  and  _503
REMARK  198  A    between atoms: _503  and  _504
REMARK  199  A    between atoms: _503  and  _506
REMARK  200  A    between atoms: _506  and  _507
REMARK  201  A    between atoms: _509  and  _511
REMARK  202  A    between atoms: _511  and  _512
REMARK  203  A    between atoms: _511  and  _514
REMARK  204  A    between atoms: _514  and  _515
REMARK  205  A    between atoms: _518  and  _520
REMARK  206  A    between atoms: _520  and  _521
REMARK  207  A    between atoms: _523  and  _525
REMARK  208  A    between atoms: _525  and  _526
REMARK  209  A    between atoms: _525  and  _528
REMARK  210  A    between atoms: _528  and  _529
REMARK  211  A    between atoms: _529  and  _530
REMARK  212  A    between atoms: _530  and  _531
REMARK  213  A    between atoms: _531  and  _532
REMARK  214  A    between atoms: _536  and  _538
REMARK  215  A    between atoms: _538  and  _539
REMARK  216  A    between atoms: _538  and  _541
REMARK  217  A    between atoms: _541  and  _542
REMARK  218  A    between atoms: _542  and  _543
REMARK  219  A    between atoms: _543  and  _544
REMARK  220  A    between atoms: _544  and  _545
REMARK  221  A    between atoms: _549  and  _551
REMARK  222  A    between atoms: _551  and  _552
REMARK  223  A    between atoms: _551  and  _554
REMARK  224  A    between atoms: _554  and  _555
REMARK  225  A    between atoms: _555  and  _556
REMARK  226  A    between atoms: _559  and  _561
REMARK  227  A    between atoms: _561  and  _562
REMARK  228  A    between atoms: _561  and  _564
REMARK  229  A    between atoms: _567  and  _569
REMARK  230  A    between atoms: _569  and  _570
REMARK  231  A    between atoms: _569  and  _572
REMARK  232  A    between atoms: _572  and  _573
REMARK  233  A    between atoms: _578  and  _579
REMARK                            x       y       z     vdW  Elec       q    Type
REMARK                         _______ _______ _______ _____ _____    ______ ____
ROOT
ATOM      1  CB  PHE A   1      50.551  36.839  16.208  0.00  0.00    +0.051 C 
ENDROOT
BRANCH   1   2
ATOM      2  CG  PHE A   1      49.778  36.146  15.136  0.00  0.00    -0.020 A 
ATOM      3  CD2 PHE A   1      48.734  35.288  15.478  0.00  0.00    -0.004 A 
ATOM      4  CE2 PHE A   1      47.865  34.785  14.504  0.00  0.00    -0.000 A 
ATOM      5  CZ  PHE A   1      48.035  35.128  13.161  0.00  0.00    -0.000 A 
ATOM      6  CE1 PHE A   1      49.087  35.967  12.786  0.00  0.00    -0.000 A 
ATOM      7  CD1 PHE A   1      49.960  36.477  13.775  0.00  0.00    -0.004 A 
ENDBRANCH   1   2
BRANCH   1   8
ATOM      8  CA  PHE A   1      50.126  38.298  16.385  0.00  0.00    +0.137 C 
BRANCH   8   9
ATOM      9  N   PHE A   1      50.714  39.031  15.306  0.00  0.00    -0.239 NA
ATOM     10  H   PHE A   1      51.717  38.890  15.070  0.00  0.00    +0.142 HD
ENDBRANCH   8   9
BRANCH   8  11
ATOM     11  C   PHE A   1      50.457  38.920  17.752  0.00  0.00    +0.224 C 
ATOM     12  O   PHE A   1      51.388  38.525  18.437  0.00  0.00    -0.287 OA
ENDBRANCH   8  11
ENDBRANCH   1   8
TORSDOF 4
REMARK  Name = ../refined-set-2016/2fzg/2fzg_pocket.pdb
REMARK  233 active torsions:
REMARK  status: ('A' for Active; 'I' for Inactive)
REMARK    1  A    between atoms: _1  and  _3
REMARK    2  A    between atoms: _3  and  _4
REMARK    3  A    between atoms: _3  and  _6
REMARK    4  A    between atoms: _6  and  _7
REMARK    5  A    between atoms: _13  and  _15
REMARK    6  A    between atoms: _15  and  _16
REMARK    7  A    between atoms: _15  and  _18
REMARK    8  A    between atoms: _18  and  _19
REMARK    9  A    between atoms: _19  and  _20
REMARK   10  A    between atoms: _23  and  _25
REMARK   11  A    between atoms: _25  and  _26
REMARK   12  A    between atoms: _29  and  _31
REMARK   13  A    between atoms: _31  and  _32
REMARK   14  A    between atoms: _31  and  _34
REMARK   15  A    between atoms: _34  and  _35
REMARK   16  A    between atoms: _37  and  _39
REMARK   17  A    between atoms: _39  and  _40
REMARK   18  A    between atoms: _39  and  _42
REMARK   19  A    between atoms: _42  and  _43
REMARK   20  A    between atoms: _46  and  _48
REMARK   21  A    between atoms: _48  and  _49
REMARK   22  A    between atoms: _48  and  _51
REMARK   23  A    between atoms: _51  and  _52
REMARK   24  A    between atoms: _52  and  _53
REMARK   25  A    between atoms: _53  and  _54
REMARK   26  A    between atoms: _63  and  _65
REMARK   27  A    between atoms: _65  and  _66
REMARK   28  A    between atoms: _65  and  _68
REMARK   29  A    between atoms: _68  and  _69
REMARK   30  A    between atoms: _72  and  _74
REMARK   31  A    between atoms: _74  and  _75
REMARK   32  A    between atoms: _74  and  _77
REMARK   33  A    between atoms: _77  and  _78
REMARK   34  A    between atoms: _78  and  _79
REMARK   35  A    between atoms: _79  and  _80
REMARK   36  A    between atoms: _89  and  _91
REMARK   37  A    between atoms: _91  and  _92
REMARK   38  A    between atoms: _91  and  _94
REMARK   39  A    between atoms: _94  and  _95
REMARK   40  A    between atoms: _98  and  _100
REMARK   41  A    between atoms: _100  and  _101
REMARK   42  A    between atoms: _100  and  _103
REMARK   43  A    between atoms: _103  and  _104
REMARK   44  A    between atoms: _106  and  _108
REMARK   45  A    between atoms: _108  and  _109
REMARK   46  A    between atoms: _108  and  _111
REMARK   47  A    between atoms: _111  and  _112
REMARK   48  A    between atoms: _118  and  _120
REMARK   49  A    between atoms: _120  and  _121
REMARK   50  A    between atoms: _120  and  _123
REMARK   51  A    between atoms: _123  and  _124
REMARK   52  A    between atoms: _124  and  _125
REMARK   53  A    between atoms: _125  and  _126
REMARK   54  A    between atoms: _135  and  _137
REMARK   55  A    between atoms: _137  and  _138
REMARK   56  A    between atoms: _141  and  _143
REMARK   57  A    between atoms: _143  and  _144
REMARK   58  A    between atoms: _146  and  _148
REMARK   59  A    between atoms: _148  and  _149
REMARK   60  A    between atoms: _148  and  _151
REMARK   61  A    between atoms: _151  and  _152
REMARK   62  A    between atoms: _155  and  _157
REMARK   63  A    between atoms: _157  and  _158
REMARK   64  A    between atoms: _160  and  _162
REMARK   65  A    between atoms: _162  and  _163
REMARK   66  A    between atoms: _162  and  _165
REMARK   67  A    between atoms: _165  and  _166
REMARK   68  A    between atoms: _168  and  _170
REMARK   69  A    between atoms: _170  and  _171
REMARK   70  A    between atoms: _170  and  _173
REMARK   71  A    between atoms: _173  and  _174
REMARK   72  A    between atoms: _174  and  _175
REMARK   73  A    between atoms: _180  and  _182
REMARK   74  A    between atoms: _182  and  _183
REMARK   75  A    between atoms: _182  and  _185
REMARK   76  A    between atoms: _185  and  _186
REMARK   77  A    between atoms: _191  and  _193
REMARK   78  A    between atoms: _193  and  _194
REMARK   79  A    between atoms: _193  and  _196
REMARK   80  A    between atoms: _196  and  _197
REMARK   81  A    between atoms: _200  and  _202
REMARK   82  A    between atoms: _202  and  _203
REMARK   83  A    between atoms: _202  and  _205
REMARK   84  A    between atoms: _205  and  _206
REMARK   85  A    between atoms: _206  and  _207
REMARK   86  A    between atoms: _212  and  _214
REMARK   87  A    between atoms: _214  and  _215
REMARK   88  A    between atoms: _214  and  _217
REMARK   89  A    between atoms: _217  and  _218
REMARK   90  A    between atoms: _221  and  _223
REMARK   91  A    between atoms: _223  and  _224
REMARK   92  A    between atoms: _223  and  _226
REMARK   93  A    between atoms: _226  and  _227
REMARK   94  A    between atoms: _230  and  _232
REMARK   95  A    between atoms: _232  and  _233
REMARK   96  A    between atoms: _232  and  _235
REMARK   97  A    between atoms: _238  and  _240
REMARK   98  A    between atoms: _240  and  _241
REMARK   99  A    between atoms: _240  and  _243
REMARK  100  A    between atoms: _243  and  _244
REMARK  101  A    between atoms: _247  and  _249
REMARK  102  A    between atoms: _249  and  _250
REMARK  103  A    between atoms: _249  and  _252
REMARK  104  A    between atoms: _252  and  _253
REMARK  105  A    between atoms: _258  and  _259
REMARK  106  A    between atoms: _261  and  _263
REMARK  107  A    between atoms: _263  and  _264
REMARK  108  A    between atoms: _266  and  _268
REMARK  109  A    between atoms: _268  and  _269
REMARK  110  A    between atoms: _268  and  _271
REMARK  111  A    between atoms: _271  and  _272
REMARK  112  A    between atoms: _272  and  _273
REMARK  113  A    between atoms: _273  and  _274
REMARK  114  A    between atoms: _283  and  _285
REMARK  115  A    between atoms: _285  and  _286
REMARK  116  A    between atoms: _285  and  _288
REMARK  117  A    between atoms: _288  and  _289
REMARK  118  A    between atoms: _292  and  _294
REMARK  119  A    between atoms: _294  and  _295
REMARK  120  A    between atoms: _294  and  _297
REMARK  121  A    between atoms: _300  and  _302
REMARK  122  A    between atoms: _302  and  _303
REMARK  123  A    between atoms: _302  and  _305
REMARK  124  A    between atoms: _305  and  _306
REMARK  125  A    between atoms: _311  and  _313
REMARK  126  A    between atoms: _313  and  _314
REMARK  127  A    between atoms: _313  and  _316
REMARK  128  A    between atoms: _316  and  _317
REMARK  129  A    between atoms: _319  and  _321
REMARK  130  A    between atoms: _321  and  _322
REMARK  131  A    between atoms: _321  and  _324
REMARK  132  A    between atoms: _324  and  _325
REMARK  133  A    between atoms: _330  and  _331
REMARK  134  A    between atoms: _333  and  _335
REMARK  135  A    between atoms: _335  and  _336
REMARK  136  A    between atoms: _335  and  _338
REMARK  137  A    between atoms: _338  and  _339
REMARK  138  A    between atoms: _339  and  _340
REMARK  139  A    between atoms: _342  and  _344
REMARK  140  A    between atoms: _344  and  _345
REMARK  141  A    between atoms: _344  and  _347
REMARK  142  A    between atoms: _347  and  _348
REMARK  143  A    between atoms: _351  and  _353
REMARK  144  A    between atoms: _353  and  _354
REMARK  145  A    between atoms: _353  and  _356
REMARK  146  A    between atoms: _356  and  _357
REMARK  147  A    between atoms: _357  and  _358
REMARK  148  A    between atoms: _358  and  _359
REMARK  149  A    between atoms: _368  and  _370
REMARK  150  A    between atoms: _370  and  _371
REMARK  151  A    between atoms: _370  and  _373
REMARK  152  A    between atoms: _376  and  _378
REMARK  153  A    between atoms: _378  and  _379
REMARK  154  A    between atoms: _378  and  _381
REMARK  155  A    between atoms: _381  and  _382
REMARK  156  A    between atoms: _382  and  _383
REMARK  157  A    between atoms: _388  and  _390
REMARK  158  A    between atoms: _390  and  _391
REMARK  159  A    between atoms: _390  and  _393
REMARK  160  A    between atoms: _393  and  _394
REMARK  161  A    between atoms: _394  and  _395
REMARK  162  A    between atoms: _395  and  _396
REMARK  163  A    between atoms: _405  and  _407
REMARK  164  A    between atoms: _407  and  _408
REMARK  165  A    between atoms: _407  and  _410
REMARK  166  A    between atoms: _410  and  _411
REMARK  167  A    between atoms: _417  and  _418
REMARK  168  A    between atoms: _423  and  _425
REMARK  169  A    between atoms: _425  and  _426
REMARK  170  A    between atoms: _425  and  _428
REMARK  171  A    between atoms: _428  and  _429
REMARK  172  A    between atoms: _433  and  _434
REMARK  173  A    between atoms: _439  and  _441
REMARK  174  A    between atoms: _441  and  _442
REMARK  175  A    between atoms: _441  and  _444
REMARK  176  A    between atoms: _444  and  _445
REMARK  177  A    between atoms: _445  and  _446
REMARK  178  A    between atoms: _446  and  _447
REMARK  179  A    between atoms: _456  and  _458
REMARK  180  A    between atoms: _458  and  _459
REMARK  181  A    between atoms: _458  and  _461
REMARK  182  A    between atoms: _461  and  _462
REMARK  183  A    between atoms: _462  and  _463
REMARK  184  A    between atoms: _466  and  _468
REMARK  185  A    between atoms: _468  and  _469
REMARK  186  A    between atoms: _468  and  _471
REMARK  187  A    between atoms: _471  and  _472
REMARK  188  A    between atoms: _472  and  _473
REMARK  189  A    between atoms: _478  and  _480
REMARK  190  A    between atoms: _480  and  _481
REMARK  191  A    between atoms: _484  and  _486
REMARK  192  A    between atoms: _486  and  _487
REMARK  193  A    between atoms: _486  and  _489
REMARK  194  A    between atoms: _489  and  _490
REMARK  195  A    between atoms: _490  and  _491
REMARK  196  A    between atoms: _491  and  _492
REMARK  197  A    between atoms: _501  and  _503
REMARK  198  A    between atoms: _503  and  _504
REMARK  199  A    between atoms: _503  and  _506
REMARK  200  A    between atoms: _506  and  _507
REMARK  201  A    between atoms: _509  and  _511
REMARK  202  A    between atoms: _511  and  _512
REMARK  203  A    between atoms: _511  and  _514
REMARK  204  A    between atoms: _514  and  _515
REMARK  205  A    between atoms: _518  and  _520
REMARK  206  A    between atoms: _520  and  _521
REMARK  207  A    between atoms: _523  and  _525
REMARK  208  A    between atoms: _525  and  _526
REMARK  209  A    between atoms: _525  and  _528
REMARK  210  A    between atoms: _528  and  _529
REMARK  211  A    between atoms: _529  and  _530
REMARK  212  A    between atoms: _530  and  _531
REMARK  213  A    between atoms: _531  and  _532
REMARK  214  A    between atoms: _536  and  _538
REMARK  215  A    between atoms: _538  and  _539
REMARK  216  A    between atoms: _538  and  _541
REMARK  217  A    between atoms: _541  and  _542
REMARK  218  A    between atoms: _542  and  _543
REMARK  219  A    between atoms: _543  and  _544
REMARK  220  A    between atoms: _544  and  _545
REMARK  221  A    between atoms: _549  and  _551
REMARK  222  A    between atoms: _551  and  _552
REMARK  223  A    between atoms: _551  and  _554
REMARK  224  A    between atoms: _554  and  _555
REMARK  225  A    between atoms: _555  and  _556
REMARK  226  A    between atoms: _559  and  _561
REMARK  227  A    between atoms: _561  and  _562
REMARK  228  A    between atoms: _561  and  _564
REMARK  229  A    between atoms: _567  and  _569
REMARK  230  A    between atoms: _569  and  _570
REMARK  231  A    between atoms: _569  and  _572
REMARK  232  A    between atoms: _572  and  _573
REMARK  233  A    between atoms: _578  and  _579
REMARK                            x       y       z     vdW  Elec       q    Type
REMARK                         _______ _______ _______ _____ _____    ______ ____
ROOT
ATOM      1  CA  THR A   6      46.307  30.326  13.025  0.00  0.00    +0.176 C 
ENDROOT
BRANCH   1   2
ATOM      2  C   THR A   6      47.325  31.153  12.290  0.00  0.00    +0.243 C 
ATOM      3  N   ARG A   7      48.404  31.475  12.971  0.00  0.00    -0.297 N 
ATOM      4  H   ARG A   7      48.493  31.214  13.974  0.00  0.00    +0.150 HD
ATOM      5  O   THR A   6      47.142  31.504  11.119  0.00  0.00    -0.273 OA
BRANCH   3   6
ATOM      6  CA  ARG A   7      49.462  32.197  12.304  0.00  0.00    +0.149 C 
BRANCH   6   7
ATOM      7  C   ARG A   7      50.057  31.309  11.176  0.00  0.00    +0.241 C 
ATOM      8  N   LEU A   8      50.442  30.037  11.427  0.00  0.00    -0.297 N 
ATOM      9  H   LEU A   8      50.332  29.643  12.383  0.00  0.00    +0.150 HD
ATOM     10  O   ARG A   7      50.131  31.775  10.054  0.00  0.00    -0.273 OA
BRANCH   8  11
ATOM     11  CA  LEU A   8      51.024  29.196  10.341  0.00  0.00    +0.149 C 
BRANCH  11  12
ATOM     12  C   LEU A   8      50.029  28.971   9.199  0.00  0.00    +0.241 C 
ATOM     13  N   SER A   9      48.759  28.807   9.538  0.00  0.00    -0.295 N 
ATOM     14  H   SER A   9      48.488  28.817  10.542  0.00  0.00    +0.150 HD
ATOM     15  O   LEU A   8      50.400  28.929   8.036  0.00  0.00    -0.273 OA
BRANCH  13  16
ATOM     16  CA  SER A   9      47.748  28.614   8.526  0.00  0.00    +0.178 C 
BRANCH  16  17
ATOM     17  C   SER A   9      47.710  29.887   7.614  0.00  0.00    +0.243 C 
ATOM     18  N   PHE A  10      47.549  31.059   8.226  0.00  0.00    -0.298 N 
ATOM     19  H   PHE A  10      47.462  31.060   9.262  0.00  0.00    +0.150 HD
ATOM     20  O   SER A   9      47.868  29.813   6.408  0.00  0.00    -0.273 OA
BRANCH  18  21
ATOM     21  CA  PHE A  10      47.487  32.345   7.532  0.00  0.00    +0.141 C 
BRANCH  21  22
ATOM     22  C   PHE A  10      48.735  32.608   6.656  0.00  0.00    +0.227 C 
ATOM     23  O   PHE A  10      48.627  32.873   5.459  0.00  0.00    -0.286 OA
ENDBRANCH  21  22
BRANCH  21  24
ATOM     24  CB  PHE A  10      47.303  33.426   8.589  0.00  0.00    +0.054 C 
BRANCH  24  25
ATOM     25  CG  PHE A  10      45.968  34.075   8.546  0.00  0.00    -0.020 A 
ATOM     26  CD2 PHE A  10      45.191  34.171   9.687  0.00  0.00    -0.004 A 
ATOM     27  CE2 PHE A  10      43.970  34.858   9.666  0.00  0.00    -0.000 A 
ATOM     28  CZ  PHE A  10      43.530  35.452   8.482  0.00  0.00    -0.000 A 
ATOM     29  CE1 PHE A  10      44.306  35.356   7.323  0.00  0.00    -0.000 A 
ATOM     30  CD1 PHE A  10      45.516  34.668   7.364  0.00  0.00    -0.004 A 
ENDBRANCH  24  25
ENDBRANCH  21  24
ENDBRANCH  18  21
ENDBRANCH  16  17
BRANCH  16  31
ATOM     31  CB  SER A   9      46.396  28.351   9.231  0.00  0.00    +0.166 C 
BRANCH  31  32
ATOM     32  OG  SER A   9      45.321  28.272   8.286  0.00  0.00    -0.380 OA
ATOM     33  H   SER A   9      44.472  28.104   8.767  0.00  0.00    +0.211 HD
ENDBRANCH  31  32
ENDBRANCH  16  31
ENDBRANCH  13  16
ENDBRANCH  11  12
BRANCH  11  34
ATOM     34  CB  LEU A   8      51.512  27.817  10.852  0.00  0.00    +0.029 C 
BRANCH  34  35
ATOM     35  CG  LEU A   8      52.693  27.836  11.814  0.00  0.00    +0.002 C 
ATOM     36  CD2 LEU A   8      53.106  26.432  12.191  0.00  0.00    +0.000 C 
ATOM     37  CD1 LEU A   8      53.849  28.543  11.163  0.00  0.00    +0.000 C 
ENDBRANCH  34  35
ENDBRANCH  11  34
ENDBRANCH   8  11
ENDBRANCH   6   7
BRANCH   6  38
ATOM     38  CB  ARG A   7      50.542  32.621  13.298  0.00  0.00    +0.033 C 
BRANCH  38  39
ATOM     39  CG  ARG A   7      51.625  33.526  12.700  0.00  0.00    +0.045 C 
BRANCH  39  40
ATOM     40  CD  ARG A   7      52.613  33.916  13.741  0.00  0.00    +0.174 C 
BRANCH  40  41
ATOM     41  NE  ARG A   7      53.276  32.746  14.324  0.00  0.00    -0.265 N 
ATOM     42  HE  ARG A   7      52.995  32.447  15.280  0.00  0.00    +0.259 HD
ATOM     43  CZ  ARG A   7      54.212  32.049  13.702  0.00  0.00    +0.342 C 
ATOM     44  NH2 ARG A   7      54.834  31.051  14.318  0.00  0.00    -0.292 N 
ATOM     45 HH21 ARG A   7      54.587  30.811  15.299  0.00  0.00    +0.255 HD
ATOM     46 HH22 ARG A   7      55.569  30.509  13.819  0.00  0.00    +0.255 HD
ATOM     47  NH1 ARG A   7      54.562  32.412  12.475  0.00  0.00    -0.292 N 
ATOM     48 HH11 ARG A   7      54.103  33.229  12.023  0.00  0.00    +0.255 HD
ATOM     49 HH12 ARG A   7      55.296  31.880  11.965  0.00  0.00    +0.255 HD
ENDBRANCH  40  41
ENDBRANCH  39  40
ENDBRANCH  38  39
ENDBRANCH   6  38
ENDBRANCH   3   6
ENDBRANCH   1   2
BRANCH   1  51
ATOM     50  C   ARG A   5      47.425  28.149  13.310  0.00  0.00    +0.241 C 
ATOM     51  N   THR A   6      46.968  29.295  13.844  0.00  0.00    -0.295 N 
ATOM     52  H   THR A   6      47.084  29.458  14.864  0.00  0.00    +0.150 HD
ATOM     53  O   ARG A   5      47.315  27.885  12.110  0.00  0.00    -0.273 OA
BRANCH  50  54
ATOM     54  CA  ARG A   5      48.085  27.145  14.245  0.00  0.00    +0.149 C 
BRANCH  54  56
ATOM     55  C   THR A   4      50.000  28.434  14.999  0.00  0.00    +0.243 C 
ATOM     56  N   ARG A   5      48.910  27.734  15.292  0.00  0.00    -0.297 N 
ATOM     57  H   ARG A   5      48.640  27.604  16.288  0.00  0.00    +0.150 HD
ATOM     58  O   THR A   4      50.372  28.631  13.841  0.00  0.00    -0.273 OA
BRANCH  55  59
ATOM     59  CA  THR A   4      50.784  29.019  16.174  0.00  0.00    +0.176 C 
BRANCH  59  61
ATOM     60  C   SER A   3      49.208  30.797  16.873  0.00  0.00    +0.243 C 
ATOM     61  N   THR A   4      50.047  29.801  17.170  0.00  0.00    -0.295 N 
ATOM     62  H   THR A   4      50.186  29.565  18.173  0.00  0.00    +0.150 HD
ATOM     63  O   SER A   3      48.905  31.118  15.714  0.00  0.00    -0.273 OA
BRANCH  60  64
ATOM     64  CA  SER A   3      48.594  31.518  18.079  0.00  0.00    +0.178 C 
BRANCH  64  67
ATOM     65  C   ALA A   2      49.337  33.233  19.672  0.00  0.00    +0.241 C 
ATOM     66  O   ALA A   2      48.366  33.076  20.415  0.00  0.00    -0.273 OA
ATOM     67  N   SER A   3      49.511  32.558  18.536  0.00  0.00    -0.295 N 
ATOM     68  H   SER A   3      50.339  32.783  17.948  0.00  0.00    +0.150 HD
BRANCH  65  69
ATOM     69  CA  ALA A   2      50.422  34.250  20.012  0.00  0.00    +0.149 C 
ATOM     70  CB  ALA A   2      51.479  33.585  20.854  0.00  0.00    +0.031 C 
BRANCH  69  72
ATOM     71  C   GLU A   1      49.002  36.205  20.091  0.00  0.00    +0.238 C 
ATOM     72  N   ALA A   2      49.888  35.429  20.703  0.00  0.00    -0.297 N 
ATOM     73  H   ALA A   2      50.202  35.656  21.668  0.00  0.00    +0.150 HD
ATOM     74  O   GLU A   1      48.559  35.963  18.958  0.00  0.00    -0.274 OA
BRANCH  71  75
ATOM     75  CA  GLU A   1      48.485  37.415  20.838  0.00  0.00    +0.145 C 
BRANCH  75  76
ATOM     76  N   GLU A   1      48.836  38.536  20.005  0.00  0.00    -0.238 NA
ATOM     77  H   GLU A   1      48.490  38.563  19.025  0.00  0.00    +0.142 HD
ENDBRANCH  75  76
BRANCH  75  78
ATOM     78  CB  GLU A   1      46.983  37.272  20.983  0.00  0.00    +0.038 C 
BRANCH  78  79
ATOM     79  CG  GLU A   1      46.629  36.101  21.869  0.00  0.00    +0.116 C 
BRANCH  79  80
ATOM     80  CD  GLU A   1      45.144  35.834  21.915  0.00  0.00    +0.365 C 
ATOM     81  OE2 GLU A   1      44.510  36.308  22.876  0.00  0.00    -0.246 OA
ATOM     82  OE1 GLU A   1      44.605  35.160  21.004  0.00  0.00    -0.246 OA
ENDBRANCH  79  80
ENDBRANCH  78  79
ENDBRANCH  75  78
ENDBRANCH  71  75
ENDBRANCH  69  72
ENDBRANCH  65  69
ENDBRANCH  64  67
BRANCH  64  83
ATOM     83  CB  SER A   3      47.228  32.124  17.724  0.00  0.00    +0.166 C 
BRANCH  83  84
ATOM     84  OG  SER A   3      46.543  31.331  16.760  0.00  0.00    -0.380 OA
ATOM     85  H   SER A   3      46.399  30.422  17.124  0.00  0.00    +0.211 HD
ENDBRANCH  83  84
ENDBRANCH  64  83
ENDBRANCH  60  64
ENDBRANCH  59  61
BRANCH  59  86
ATOM     86  CB  THR A   4      51.610  27.908  16.887  0.00  0.00    +0.137 C 
ATOM     87  CG2 THR A   4      52.580  27.224  15.918  0.00  0.00    +0.034 C 
BRANCH  86  88
ATOM     88  OG1 THR A   4      52.402  28.510  17.918  0.00  0.00    -0.382 OA
ATOM     89  HG1 THR A   4      53.013  29.177  17.516  0.00  0.00    +0.210 HD
ENDBRANCH  86  88
ENDBRANCH  59  86
ENDBRANCH  55  59
ENDBRANCH  54  56
BRANCH  54  90
ATOM     90  CB  ARG A   5      47.008  26.238  14.845  0.00  0.00    +0.033 C 
BRANCH  90  91
ATOM     91  CG  ARG A   5      46.111  25.546  13.804  0.00  0.00    +0.045 C 
BRANCH  91  92
ATOM     92  CD  ARG A   5      44.943  24.796  14.476  0.00  0.00    +0.174 C 
BRANCH  92  93
ATOM     93  NE  ARG A   5      45.428  23.920  15.541  0.00  0.00    -0.265 N 
ATOM     94  CZ  ARG A   5      45.252  24.158  16.839  0.00  0.00    +0.342 C 
ATOM     95  NH2 ARG A   5      45.739  23.317  17.742  0.00  0.00    -0.292 N 
ATOM     96 HH21 ARG A   5      45.600  23.505  18.755  0.00  0.00    +0.255 HD
ATOM     97 HH22 ARG A   5      46.259  22.470  17.436  0.00  0.00    +0.255 HD
ATOM     98  NH1 ARG A   5      44.573  25.230  17.249  0.00  0.00    -0.292 N 
ATOM     99 HH11 ARG A   5      44.442  25.405  18.266  0.00  0.00    +0.255 HD
ATOM    100 HH12 ARG A   5      44.174  25.891  16.552  0.00  0.00    +0.255 HD
ATOM    101  HE  ARG A   5      45.942  23.058  15.268  0.00  0.00    +0.259 HD
ENDBRANCH  92  93
ENDBRANCH  91  92
ENDBRANCH  90  91
ENDBRANCH  54  90
ENDBRANCH  50  54
ENDBRANCH   1  51
BRANCH   1 102
ATOM    102  CB  THR A   6      45.427  31.239  13.888  0.00  0.00    +0.137 C 
ATOM    103  CG2 THR A   6      44.920  32.468  13.098  0.00  0.00    +0.034 C 
BRANCH 102 104
ATOM    104  OG1 THR A   6      44.309  30.476  14.330  0.00  0.00    -0.382 OA
ATOM    105  HG1 THR A   6      44.627  29.703  14.861  0.00  0.00    +0.210 HD
ENDBRANCH 102 104
ENDBRANCH   1 102
TORSDOF 43
REMARK  Name = ../refined-set-2016/2fzg/2fzg_pocket.pdb
REMARK  233 active torsions:
REMARK  status: ('A' for Active; 'I' for Inactive)
REMARK    1  A    between atoms: _1  and  _3
REMARK    2  A    between atoms: _3  and  _4
REMARK    3  A    between atoms: _3  and  _6
REMARK    4  A    between atoms: _6  and  _7
REMARK    5  A    between atoms: _13  and  _15
REMARK    6  A    between atoms: _15  and  _16
REMARK    7  A    between atoms: _15  and  _18
REMARK    8  A    between atoms: _18  and  _19
REMARK    9  A    between atoms: _19  and  _20
REMARK   10  A    between atoms: _23  and  _25
REMARK   11  A    between atoms: _25  and  _26
REMARK   12  A    between atoms: _29  and  _31
REMARK   13  A    between atoms: _31  and  _32
REMARK   14  A    between atoms: _31  and  _34
REMARK   15  A    between atoms: _34  and  _35
REMARK   16  A    between atoms: _37  and  _39
REMARK   17  A    between atoms: _39  and  _40
REMARK   18  A    between atoms: _39  and  _42
REMARK   19  A    between atoms: _42  and  _43
REMARK   20  A    between atoms: _46  and  _48
REMARK   21  A    between atoms: _48  and  _49
REMARK   22  A    between atoms: _48  and  _51
REMARK   23  A    between atoms: _51  and  _52
REMARK   24  A    between atoms: _52  and  _53
REMARK   25  A    between atoms: _53  and  _54
REMARK   26  A    between atoms: _63  and  _65
REMARK   27  A    between atoms: _65  and  _66
REMARK   28  A    between atoms: _65  and  _68
REMARK   29  A    between atoms: _68  and  _69
REMARK   30  A    between atoms: _72  and  _74
REMARK   31  A    between atoms: _74  and  _75
REMARK   32  A    between atoms: _74  and  _77
REMARK   33  A    between atoms: _77  and  _78
REMARK   34  A    between atoms: _78  and  _79
REMARK   35  A    between atoms: _79  and  _80
REMARK   36  A    between atoms: _89  and  _91
REMARK   37  A    between atoms: _91  and  _92
REMARK   38  A    between atoms: _91  and  _94
REMARK   39  A    between atoms: _94  and  _95
REMARK   40  A    between atoms: _98  and  _100
REMARK   41  A    between atoms: _100  and  _101
REMARK   42  A    between atoms: _100  and  _103
REMARK   43  A    between atoms: _103  and  _104
REMARK   44  A    between atoms: _106  and  _108
REMARK   45  A    between atoms: _108  and  _109
REMARK   46  A    between atoms: _108  and  _111
REMARK   47  A    between atoms: _111  and  _112
REMARK   48  A    between atoms: _118  and  _120
REMARK   49  A    between atoms: _120  and  _121
REMARK   50  A    between atoms: _120  and  _123
REMARK   51  A    between atoms: _123  and  _124
REMARK   52  A    between atoms: _124  and  _125
REMARK   53  A    between atoms: _125  and  _126
REMARK   54  A    between atoms: _135  and  _137
REMARK   55  A    between atoms: _137  and  _138
REMARK   56  A    between atoms: _141  and  _143
REMARK   57  A    between atoms: _143  and  _144
REMARK   58  A    between atoms: _146  and  _148
REMARK   59  A    between atoms: _148  and  _149
REMARK   60  A    between atoms: _148  and  _151
REMARK   61  A    between atoms: _151  and  _152
REMARK   62  A    between atoms: _155  and  _157
REMARK   63  A    between atoms: _157  and  _158
REMARK   64  A    between atoms: _160  and  _162
REMARK   65  A    between atoms: _162  and  _163
REMARK   66  A    between atoms: _162  and  _165
REMARK   67  A    between atoms: _165  and  _166
REMARK   68  A    between atoms: _168  and  _170
REMARK   69  A    between atoms: _170  and  _171
REMARK   70  A    between atoms: _170  and  _173
REMARK   71  A    between atoms: _173  and  _174
REMARK   72  A    between atoms: _174  and  _175
REMARK   73  A    between atoms: _180  and  _182
REMARK   74  A    between atoms: _182  and  _183
REMARK   75  A    between atoms: _182  and  _185
REMARK   76  A    between atoms: _185  and  _186
REMARK   77  A    between atoms: _191  and  _193
REMARK   78  A    between atoms: _193  and  _194
REMARK   79  A    between atoms: _193  and  _196
REMARK   80  A    between atoms: _196  and  _197
REMARK   81  A    between atoms: _200  and  _202
REMARK   82  A    between atoms: _202  and  _203
REMARK   83  A    between atoms: _202  and  _205
REMARK   84  A    between atoms: _205  and  _206
REMARK   85  A    between atoms: _206  and  _207
REMARK   86  A    between atoms: _212  and  _214
REMARK   87  A    between atoms: _214  and  _215
REMARK   88  A    between atoms: _214  and  _217
REMARK   89  A    between atoms: _217  and  _218
REMARK   90  A    between atoms: _221  and  _223
REMARK   91  A    between atoms: _223  and  _224
REMARK   92  A    between atoms: _223  and  _226
REMARK   93  A    between atoms: _226  and  _227
REMARK   94  A    between atoms: _230  and  _232
REMARK   95  A    between atoms: _232  and  _233
REMARK   96  A    between atoms: _232  and  _235
REMARK   97  A    between atoms: _238  and  _240
REMARK   98  A    between atoms: _240  and  _241
REMARK   99  A    between atoms: _240  and  _243
REMARK  100  A    between atoms: _243  and  _244
REMARK  101  A    between atoms: _247  and  _249
REMARK  102  A    between atoms: _249  and  _250
REMARK  103  A    between atoms: _249  and  _252
REMARK  104  A    between atoms: _252  and  _253
REMARK  105  A    between atoms: _258  and  _259
REMARK  106  A    between atoms: _261  and  _263
REMARK  107  A    between atoms: _263  and  _264
REMARK  108  A    between atoms: _266  and  _268
REMARK  109  A    between atoms: _268  and  _269
REMARK  110  A    between atoms: _268  and  _271
REMARK  111  A    between atoms: _271  and  _272
REMARK  112  A    between atoms: _272  and  _273
REMARK  113  A    between atoms: _273  and  _274
REMARK  114  A    between atoms: _283  and  _285
REMARK  115  A    between atoms: _285  and  _286
REMARK  116  A    between atoms: _285  and  _288
REMARK  117  A    between atoms: _288  and  _289
REMARK  118  A    between atoms: _292  and  _294
REMARK  119  A    between atoms: _294  and  _295
REMARK  120  A    between atoms: _294  and  _297
REMARK  121  A    between atoms: _300  and  _302
REMARK  122  A    between atoms: _302  and  _303
REMARK  123  A    between atoms: _302  and  _305
REMARK  124  A    between atoms: _305  and  _306
REMARK  125  A    between atoms: _311  and  _313
REMARK  126  A    between atoms: _313  and  _314
REMARK  127  A    between atoms: _313  and  _316
REMARK  128  A    between atoms: _316  and  _317
REMARK  129  A    between atoms: _319  and  _321
REMARK  130  A    between atoms: _321  and  _322
REMARK  131  A    between atoms: _321  and  _324
REMARK  132  A    between atoms: _324  and  _325
REMARK  133  A    between atoms: _330  and  _331
REMARK  134  A    between atoms: _333  and  _335
REMARK  135  A    between atoms: _335  and  _336
REMARK  136  A    between atoms: _335  and  _338
REMARK  137  A    between atoms: _338  and  _339
REMARK  138  A    between atoms: _339  and  _340
REMARK  139  A    between atoms: _342  and  _344
REMARK  140  A    between atoms: _344  and  _345
REMARK  141  A    between atoms: _344  and  _347
REMARK  142  A    between atoms: _347  and  _348
REMARK  143  A    between atoms: _351  and  _353
REMARK  144  A    between atoms: _353  and  _354
REMARK  145  A    between atoms: _353  and  _356
REMARK  146  A    between atoms: _356  and  _357
REMARK  147  A    between atoms: _357  and  _358
REMARK  148  A    between atoms: _358  and  _359
REMARK  149  A    between atoms: _368  and  _370
REMARK  150  A    between atoms: _370  and  _371
REMARK  151  A    between atoms: _370  and  _373
REMARK  152  A    between atoms: _376  and  _378
REMARK  153  A    between atoms: _378  and  _379
REMARK  154  A    between atoms: _378  and  _381
REMARK  155  A    between atoms: _381  and  _382
REMARK  156  A    between atoms: _382  and  _383
REMARK  157  A    between atoms: _388  and  _390
REMARK  158  A    between atoms: _390  and  _391
REMARK  159  A    between atoms: _390  and  _393
REMARK  160  A    between atoms: _393  and  _394
REMARK  161  A    between atoms: _394  and  _395
REMARK  162  A    between atoms: _395  and  _396
REMARK  163  A    between atoms: _405  and  _407
REMARK  164  A    between atoms: _407  and  _408
REMARK  165  A    between atoms: _407  and  _410
REMARK  166  A    between atoms: _410  and  _411
REMARK  167  A    between atoms: _417  and  _418
REMARK  168  A    between atoms: _423  and  _425
REMARK  169  A    between atoms: _425  and  _426
REMARK  170  A    between atoms: _425  and  _428
REMARK  171  A    between atoms: _428  and  _429
REMARK  172  A    between atoms: _433  and  _434
REMARK  173  A    between atoms: _439  and  _441
REMARK  174  A    between atoms: _441  and  _442
REMARK  175  A    between atoms: _441  and  _444
REMARK  176  A    between atoms: _444  and  _445
REMARK  177  A    between atoms: _445  and  _446
REMARK  178  A    between atoms: _446  and  _447
REMARK  179  A    between atoms: _456  and  _458
REMARK  180  A    between atoms: _458  and  _459
REMARK  181  A    between atoms: _458  and  _461
REMARK  182  A    between atoms: _461  and  _462
REMARK  183  A    between atoms: _462  and  _463
REMARK  184  A    between atoms: _466  and  _468
REMARK  185  A    between atoms: _468  and  _469
REMARK  186  A    between atoms: _468  and  _471
REMARK  187  A    between atoms: _471  and  _472
REMARK  188  A    between atoms: _472  and  _473
REMARK  189  A    between atoms: _478  and  _480
REMARK  190  A    between atoms: _480  and  _481
REMARK  191  A    between atoms: _484  and  _486
REMARK  192  A    between atoms: _486  and  _487
REMARK  193  A    between atoms: _486  and  _489
REMARK  194  A    between atoms: _489  and  _490
REMARK  195  A    between atoms: _490  and  _491
REMARK  196  A    between atoms: _491  and  _492
REMARK  197  A    between atoms: _501  and  _503
REMARK  198  A    between atoms: _503  and  _504
REMARK  199  A    between atoms: _503  and  _506
REMARK  200  A    between atoms: _506  and  _507
REMARK  201  A    between atoms: _509  and  _511
REMARK  202  A    between atoms: _511  and  _512
REMARK  203  A    between atoms: _511  and  _514
REMARK  204  A    between atoms: _514  and  _515
REMARK  205  A    between atoms: _518  and  _520
REMARK  206  A    between atoms: _520  and  _521
REMARK  207  A    between atoms: _523  and  _525
REMARK  208  A    between atoms: _525  and  _526
REMARK  209  A    between atoms: _525  and  _528
REMARK  210  A    between atoms: _528  and  _529
REMARK  211  A    between atoms: _529  and  _530
REMARK  212  A    between atoms: _530  and  _531
REMARK  213  A    between atoms: _531  and  _532
REMARK  214  A    between atoms: _536  and  _538
REMARK  215  A    between atoms: _538  and  _539
REMARK  216  A    between atoms: _538  and  _541
REMARK  217  A    between atoms: _541  and  _542
REMARK  218  A    between atoms: _542  and  _543
REMARK  219  A    between atoms: _543  and  _544
REMARK  220  A    between atoms: _544  and  _545
REMARK  221  A    between atoms: _549  and  _551
REMARK  222  A    between atoms: _551  and  _552
REMARK  223  A    between atoms: _551  and  _554
REMARK  224  A    between atoms: _554  and  _555
REMARK  225  A    between atoms: _555  and  _556
REMARK  226  A    between atoms: _559  and  _561
REMARK  227  A    between atoms: _561  and  _562
REMARK  228  A    between atoms: _561  and  _564
REMARK  229  A    between atoms: _567  and  _569
REMARK  230  A    between atoms: _569  and  _570
REMARK  231  A    between atoms: _569  and  _572
REMARK  232  A    between atoms: _572  and  _573
REMARK  233  A    between atoms: _578  and  _579
REMARK                            x       y       z     vdW  Elec       q    Type
REMARK                         _______ _______ _______ _____ _____    ______ ____
ROOT
ATOM      1  NE  ARG A   1      44.730  34.336  18.464  0.00  0.00    -0.265 N 
ATOM      2  HE  ARG A   1      44.976  34.524  19.457  0.00  0.00    +0.259 HD
ATOM      3  CZ  ARG A   1      43.856  33.376  18.192  0.00  0.00    +0.342 C 
ATOM      4  NH2 ARG A   1      43.435  32.576  19.154  0.00  0.00    -0.292 N 
ATOM      5 HH21 ARG A   1      43.789  32.699  20.124  0.00  0.00    +0.255 HD
ATOM      6 HH22 ARG A   1      42.750  31.823  18.942  0.00  0.00    +0.255 HD
ATOM      7  NH1 ARG A   1      43.479  33.161  16.933  0.00  0.00    -0.292 N 
ATOM      8 HH11 ARG A   1      42.794  32.409  16.717  0.00  0.00    +0.255 HD
ATOM      9 HH12 ARG A   1      43.870  33.745  16.166  0.00  0.00    +0.255 HD
ENDROOT
BRANCH   1  10
ATOM     10  CD  ARG A   1      45.349  35.126  17.432  0.00  0.00    +0.174 C 
BRANCH  10  11
ATOM     11  CG  ARG A   1      44.994  36.519  17.535  0.00  0.00    +0.045 C 
BRANCH  11  12
ATOM     12  CB  ARG A   1      45.772  37.256  16.457  0.00  0.00    +0.029 C 
BRANCH  12  13
ATOM     13  CA  ARG A   1      45.325  38.700  16.307  0.00  0.00    +0.133 C 
BRANCH  13  14
ATOM     14  N   ARG A   1      46.027  39.382  15.235  0.00  0.00    -0.239 NA
ATOM     15  H   ARG A   1      47.057  39.497  15.319  0.00  0.00    +0.142 HD
ENDBRANCH  13  14
BRANCH  13  16
ATOM     16  C   ARG A   1      45.706  39.511  17.535  0.00  0.00    +0.224 C 
ATOM     17  O   ARG A   1      46.882  39.873  17.698  0.00  0.00    -0.287 OA
ENDBRANCH  13  16
ENDBRANCH  12  13
ENDBRANCH  11  12
ENDBRANCH  10  11
ENDBRANCH   1  10
TORSDOF 6
REMARK  Name = ../refined-set-2016/2fzg/2fzg_pocket.pdb
REMARK  233 active torsions:
REMARK  status: ('A' for Active; 'I' for Inactive)
REMARK    1  A    between atoms: _1  and  _3
REMARK    2  A    between atoms: _3  and  _4
REMARK    3  A    between atoms: _3  and  _6
REMARK    4  A    between atoms: _6  and  _7
REMARK    5  A    between atoms: _13  and  _15
REMARK    6  A    between atoms: _15  and  _16
REMARK    7  A    between atoms: _15  and  _18
REMARK    8  A    between atoms: _18  and  _19
REMARK    9  A    between atoms: _19  and  _20
REMARK   10  A    between atoms: _23  and  _25
REMARK   11  A    between atoms: _25  and  _26
REMARK   12  A    between atoms: _29  and  _31
REMARK   13  A    between atoms: _31  and  _32
REMARK   14  A    between atoms: _31  and  _34
REMARK   15  A    between atoms: _34  and  _35
REMARK   16  A    between atoms: _37  and  _39
REMARK   17  A    between atoms: _39  and  _40
REMARK   18  A    between atoms: _39  and  _42
REMARK   19  A    between atoms: _42  and  _43
REMARK   20  A    between atoms: _46  and  _48
REMARK   21  A    between atoms: _48  and  _49
REMARK   22  A    between atoms: _48  and  _51
REMARK   23  A    between atoms: _51  and  _52
REMARK   24  A    between atoms: _52  and  _53
REMARK   25  A    between atoms: _53  and  _54
REMARK   26  A    between atoms: _63  and  _65
REMARK   27  A    between atoms: _65  and  _66
REMARK   28  A    between atoms: _65  and  _68
REMARK   29  A    between atoms: _68  and  _69
REMARK   30  A    between atoms: _72  and  _74
REMARK   31  A    between atoms: _74  and  _75
REMARK   32  A    between atoms: _74  and  _77
REMARK   33  A    between atoms: _77  and  _78
REMARK   34  A    between atoms: _78  and  _79
REMARK   35  A    between atoms: _79  and  _80
REMARK   36  A    between atoms: _89  and  _91
REMARK   37  A    between atoms: _91  and  _92
REMARK   38  A    between atoms: _91  and  _94
REMARK   39  A    between atoms: _94  and  _95
REMARK   40  A    between atoms: _98  and  _100
REMARK   41  A    between atoms: _100  and  _101
REMARK   42  A    between atoms: _100  and  _103
REMARK   43  A    between atoms: _103  and  _104
REMARK   44  A    between atoms: _106  and  _108
REMARK   45  A    between atoms: _108  and  _109
REMARK   46  A    between atoms: _108  and  _111
REMARK   47  A    between atoms: _111  and  _112
REMARK   48  A    between atoms: _118  and  _120
REMARK   49  A    between atoms: _120  and  _121
REMARK   50  A    between atoms: _120  and  _123
REMARK   51  A    between atoms: _123  and  _124
REMARK   52  A    between atoms: _124  and  _125
REMARK   53  A    between atoms: _125  and  _126
REMARK   54  A    between atoms: _135  and  _137
REMARK   55  A    between atoms: _137  and  _138
REMARK   56  A    between atoms: _141  and  _143
REMARK   57  A    between atoms: _143  and  _144
REMARK   58  A    between atoms: _146  and  _148
REMARK   59  A    between atoms: _148  and  _149
REMARK   60  A    between atoms: _148  and  _151
REMARK   61  A    between atoms: _151  and  _152
REMARK   62  A    between atoms: _155  and  _157
REMARK   63  A    between atoms: _157  and  _158
REMARK   64  A    between atoms: _160  and  _162
REMARK   65  A    between atoms: _162  and  _163
REMARK   66  A    between atoms: _162  and  _165
REMARK   67  A    between atoms: _165  and  _166
REMARK   68  A    between atoms: _168  and  _170
REMARK   69  A    between atoms: _170  and  _171
REMARK   70  A    between atoms: _170  and  _173
REMARK   71  A    between atoms: _173  and  _174
REMARK   72  A    between atoms: _174  and  _175
REMARK   73  A    between atoms: _180  and  _182
REMARK   74  A    between atoms: _182  and  _183
REMARK   75  A    between atoms: _182  and  _185
REMARK   76  A    between atoms: _185  and  _186
REMARK   77  A    between atoms: _191  and  _193
REMARK   78  A    between atoms: _193  and  _194
REMARK   79  A    between atoms: _193  and  _196
REMARK   80  A    between atoms: _196  and  _197
REMARK   81  A    between atoms: _200  and  _202
REMARK   82  A    between atoms: _202  and  _203
REMARK   83  A    between atoms: _202  and  _205
REMARK   84  A    between atoms: _205  and  _206
REMARK   85  A    between atoms: _206  and  _207
REMARK   86  A    between atoms: _212  and  _214
REMARK   87  A    between atoms: _214  and  _215
REMARK   88  A    between atoms: _214  and  _217
REMARK   89  A    between atoms: _217  and  _218
REMARK   90  A    between atoms: _221  and  _223
REMARK   91  A    between atoms: _223  and  _224
REMARK   92  A    between atoms: _223  and  _226
REMARK   93  A    between atoms: _226  and  _227
REMARK   94  A    between atoms: _230  and  _232
REMARK   95  A    between atoms: _232  and  _233
REMARK   96  A    between atoms: _232  and  _235
REMARK   97  A    between atoms: _238  and  _240
REMARK   98  A    between atoms: _240  and  _241
REMARK   99  A    between atoms: _240  and  _243
REMARK  100  A    between atoms: _243  and  _244
REMARK  101  A    between atoms: _247  and  _249
REMARK  102  A    between atoms: _249  and  _250
REMARK  103  A    between atoms: _249  and  _252
REMARK  104  A    between atoms: _252  and  _253
REMARK  105  A    between atoms: _258  and  _259
REMARK  106  A    between atoms: _261  and  _263
REMARK  107  A    between atoms: _263  and  _264
REMARK  108  A    between atoms: _266  and  _268
REMARK  109  A    between atoms: _268  and  _269
REMARK  110  A    between atoms: _268  and  _271
REMARK  111  A    between atoms: _271  and  _272
REMARK  112  A    between atoms: _272  and  _273
REMARK  113  A    between atoms: _273  and  _274
REMARK  114  A    between atoms: _283  and  _285
REMARK  115  A    between atoms: _285  and  _286
REMARK  116  A    between atoms: _285  and  _288
REMARK  117  A    between atoms: _288  and  _289
REMARK  118  A    between atoms: _292  and  _294
REMARK  119  A    between atoms: _294  and  _295
REMARK  120  A    between atoms: _294  and  _297
REMARK  121  A    between atoms: _300  and  _302
REMARK  122  A    between atoms: _302  and  _303
REMARK  123  A    between atoms: _302  and  _305
REMARK  124  A    between atoms: _305  and  _306
REMARK  125  A    between atoms: _311  and  _313
REMARK  126  A    between atoms: _313  and  _314
REMARK  127  A    between atoms: _313  and  _316
REMARK  128  A    between atoms: _316  and  _317
REMARK  129  A    between atoms: _319  and  _321
REMARK  130  A    between atoms: _321  and  _322
REMARK  131  A    between atoms: _321  and  _324
REMARK  132  A    between atoms: _324  and  _325
REMARK  133  A    between atoms: _330  and  _331
REMARK  134  A    between atoms: _333  and  _335
REMARK  135  A    between atoms: _335  and  _336
REMARK  136  A    between atoms: _335  and  _338
REMARK  137  A    between atoms: _338  and  _339
REMARK  138  A    between atoms: _339  and  _340
REMARK  139  A    between atoms: _342  and  _344
REMARK  140  A    between atoms: _344  and  _345
REMARK  141  A    between atoms: _344  and  _347
REMARK  142  A    between atoms: _347  and  _348
REMARK  143  A    between atoms: _351  and  _353
REMARK  144  A    between atoms: _353  and  _354
REMARK  145  A    between atoms: _353  and  _356
REMARK  146  A    between atoms: _356  and  _357
REMARK  147  A    between atoms: _357  and  _358
REMARK  148  A    between atoms: _358  and  _359
REMARK  149  A    between atoms: _368  and  _370
REMARK  150  A    between atoms: _370  and  _371
REMARK  151  A    between atoms: _370  and  _373
REMARK  152  A    between atoms: _376  and  _378
REMARK  153  A    between atoms: _378  and  _379
REMARK  154  A    between atoms: _378  and  _381
REMARK  155  A    between atoms: _381  and  _382
REMARK  156  A    between atoms: _382  and  _383
REMARK  157  A    between atoms: _388  and  _390
REMARK  158  A    between atoms: _390  and  _391
REMARK  159  A    between atoms: _390  and  _393
REMARK  160  A    between atoms: _393  and  _394
REMARK  161  A    between atoms: _394  and  _395
REMARK  162  A    between atoms: _395  and  _396
REMARK  163  A    between atoms: _405  and  _407
REMARK  164  A    between atoms: _407  and  _408
REMARK  165  A    between atoms: _407  and  _410
REMARK  166  A    between atoms: _410  and  _411
REMARK  167  A    between atoms: _417  and  _418
REMARK  168  A    between atoms: _423  and  _425
REMARK  169  A    between atoms: _425  and  _426
REMARK  170  A    between atoms: _425  and  _428
REMARK  171  A    between atoms: _428  and  _429
REMARK  172  A    between atoms: _433  and  _434
REMARK  173  A    between atoms: _439  and  _441
REMARK  174  A    between atoms: _441  and  _442
REMARK  175  A    between atoms: _441  and  _444
REMARK  176  A    between atoms: _444  and  _445
REMARK  177  A    between atoms: _445  and  _446
REMARK  178  A    between atoms: _446  and  _447
REMARK  179  A    between atoms: _456  and  _458
REMARK  180  A    between atoms: _458  and  _459
REMARK  181  A    between atoms: _458  and  _461
REMARK  182  A    between atoms: _461  and  _462
REMARK  183  A    between atoms: _462  and  _463
REMARK  184  A    between atoms: _466  and  _468
REMARK  185  A    between atoms: _468  and  _469
REMARK  186  A    between atoms: _468  and  _471
REMARK  187  A    between atoms: _471  and  _472
REMARK  188  A    between atoms: _472  and  _473
REMARK  189  A    between atoms: _478  and  _480
REMARK  190  A    between atoms: _480  and  _481
REMARK  191  A    between atoms: _484  and  _486
REMARK  192  A    between atoms: _486  and  _487
REMARK  193  A    between atoms: _486  and  _489
REMARK  194  A    between atoms: _489  and  _490
REMARK  195  A    between atoms: _490  and  _491
REMARK  196  A    between atoms: _491  and  _492
REMARK  197  A    between atoms: _501  and  _503
REMARK  198  A    between atoms: _503  and  _504
REMARK  199  A    between atoms: _503  and  _506
REMARK  200  A    between atoms: _506  and  _507
REMARK  201  A    between atoms: _509  and  _511
REMARK  202  A    between atoms: _511  and  _512
REMARK  203  A    between atoms: _511  and  _514
REMARK  204  A    between atoms: _514  and  _515
REMARK  205  A    between atoms: _518  and  _520
REMARK  206  A    between atoms: _520  and  _521
REMARK  207  A    between atoms: _523  and  _525
REMARK  208  A    between atoms: _525  and  _526
REMARK  209  A    between atoms: _525  and  _528
REMARK  210  A    between atoms: _528  and  _529
REMARK  211  A    between atoms: _529  and  _530
REMARK  212  A    between atoms: _530  and  _531
REMARK  213  A    between atoms: _531  and  _532
REMARK  214  A    between atoms: _536  and  _538
REMARK  215  A    between atoms: _538  and  _539
REMARK  216  A    between atoms: _538  and  _541
REMARK  217  A    between atoms: _541  and  _542
REMARK  218  A    between atoms: _542  and  _543
REMARK  219  A    between atoms: _543  and  _544
REMARK  220  A    between atoms: _544  and  _545
REMARK  221  A    between atoms: _549  and  _551
REMARK  222  A    between atoms: _551  and  _552
REMARK  223  A    between atoms: _551  and  _554
REMARK  224  A    between atoms: _554  and  _555
REMARK  225  A    between atoms: _555  and  _556
REMARK  226  A    between atoms: _559  and  _561
REMARK  227  A    between atoms: _561  and  _562
REMARK  228  A    between atoms: _561  and  _564
REMARK  229  A    between atoms: _567  and  _569
REMARK  230  A    between atoms: _569  and  _570
REMARK  231  A    between atoms: _569  and  _572
REMARK  232  A    between atoms: _572  and  _573
REMARK  233  A    between atoms: _578  and  _579
REMARK                            x       y       z     vdW  Elec       q    Type
REMARK                         _______ _______ _______ _____ _____    ______ ____
ROOT
ATOM      1  CA  ASP A   3      40.192  39.973  18.761  0.00  0.00    +0.160 C 
ENDROOT
BRANCH   1   3
ATOM      2  C   GLY A   2      41.269  38.296  17.297  0.00  0.00    +0.243 C 
ATOM      3  N   ASP A   3      40.173  38.858  17.813  0.00  0.00    -0.296 N 
ATOM      4  H   ASP A   3      39.249  38.480  17.523  0.00  0.00    +0.150 HD
ATOM      5  O   GLY A   2      42.424  38.639  17.586  0.00  0.00    -0.273 OA
BRANCH   2   6
ATOM      6  CA  GLY A   2      41.032  37.137  16.327  0.00  0.00    +0.176 C 
BRANCH   6   8
ATOM      7  C   ALA A   1      42.224  36.426  14.321  0.00  0.00    +0.238 C 
ATOM      8  N   GLY A   2      41.544  37.372  14.986  0.00  0.00    -0.296 N 
ATOM      9  H   GLY A   2      41.379  38.293  14.533  0.00  0.00    +0.150 HD
ATOM     10  O   ALA A   1      42.488  35.340  14.808  0.00  0.00    -0.274 OA
BRANCH   7  11
ATOM     11  CA  ALA A   1      42.667  36.784  12.901  0.00  0.00    +0.145 C 
ATOM     12  CB  ALA A   1      44.213  36.584  12.743  0.00  0.00    +0.028 C 
BRANCH  11  13
ATOM     13  N   ALA A   1      42.310  38.186  12.628  0.00  0.00    -0.238 NA
ATOM     14  H   ALA A   1      42.996  38.925  12.882  0.00  0.00    +0.142 HD
ENDBRANCH  11  13
ENDBRANCH   7  11
ENDBRANCH   6   8
ENDBRANCH   2   6
ENDBRANCH   1   3
BRANCH   1  15
ATOM     15  C   ASP A   3      39.426  39.660  20.074  0.00  0.00    +0.241 C 
ATOM     16  N   GLY A   4      40.160  39.169  21.082  0.00  0.00    -0.295 N 
ATOM     17  H   GLY A   4      41.183  39.032  20.951  0.00  0.00    +0.150 HD
ATOM     18  O   ASP A   3      38.206  39.845  20.170  0.00  0.00    -0.273 OA
BRANCH  16  19
ATOM     19  CA  GLY A   4      39.547  38.824  22.361  0.00  0.00    +0.176 C 
BRANCH  19  20
ATOM     20  C   GLY A   4      38.352  37.896  22.213  0.00  0.00    +0.243 C 
ATOM     21  N   SER A   5      37.272  38.064  22.976  0.00  0.00    -0.296 N 
ATOM     22  H   SER A   5      37.236  38.841  23.666  0.00  0.00    +0.150 HD
ATOM     23  O   GLY A   4      38.411  37.009  21.388  0.00  0.00    -0.273 OA
BRANCH  21  24
ATOM     24  CA  SER A   5      36.138  37.151  22.838  0.00  0.00    +0.166 C 
BRANCH  24  25
ATOM     25  C   SER A   5      35.099  37.703  21.849  0.00  0.00    +0.229 C 
ATOM     26  O   SER A   5      33.902  37.348  21.885  0.00  0.00    -0.286 OA
ENDBRANCH  24  25
BRANCH  24  27
ATOM     27  CB  SER A   5      35.481  36.919  24.200  0.00  0.00    +0.165 C 
BRANCH  27  28
ATOM     28  OG  SER A   5      34.931  38.131  24.739  0.00  0.00    -0.380 OA
ATOM     29  H   SER A   5      34.516  37.942  25.618  0.00  0.00    +0.211 HD
ENDBRANCH  27  28
ENDBRANCH  24  27
ENDBRANCH  21  24
ENDBRANCH  19  20
ENDBRANCH  16  19
ENDBRANCH   1  15
BRANCH   1  30
ATOM     30  CB  ASP A   3      39.660  41.249  18.064  0.00  0.00    +0.143 C 
BRANCH  30  31
ATOM     31  CG  ASP A   3      38.135  41.258  17.808  0.00  0.00    +0.367 C 
ATOM     32  OD2 ASP A   3      37.553  42.372  17.973  0.00  0.00    -0.246 OA
ATOM     33  OD1 ASP A   3      37.534  40.223  17.388  0.00  0.00    -0.246 OA
ENDBRANCH  30  31
ENDBRANCH   1  30
TORSDOF 14
REMARK  Name = ../refined-set-2016/2fzg/2fzg_pocket.pdb
REMARK  233 active torsions:
REMARK  status: ('A' for Active; 'I' for Inactive)
REMARK    1  A    between atoms: _1  and  _3
REMARK    2  A    between atoms: _3  and  _4
REMARK    3  A    between atoms: _3  and  _6
REMARK    4  A    between atoms: _6  and  _7
REMARK    5  A    between atoms: _13  and  _15
REMARK    6  A    between atoms: _15  and  _16
REMARK    7  A    between atoms: _15  and  _18
REMARK    8  A    between atoms: _18  and  _19
REMARK    9  A    between atoms: _19  and  _20
REMARK   10  A    between atoms: _23  and  _25
REMARK   11  A    between atoms: _25  and  _26
REMARK   12  A    between atoms: _29  and  _31
REMARK   13  A    between atoms: _31  and  _32
REMARK   14  A    between atoms: _31  and  _34
REMARK   15  A    between atoms: _34  and  _35
REMARK   16  A    between atoms: _37  and  _39
REMARK   17  A    between atoms: _39  and  _40
REMARK   18  A    between atoms: _39  and  _42
REMARK   19  A    between atoms: _42  and  _43
REMARK   20  A    between atoms: _46  and  _48
REMARK   21  A    between atoms: _48  and  _49
REMARK   22  A    between atoms: _48  and  _51
REMARK   23  A    between atoms: _51  and  _52
REMARK   24  A    between atoms: _52  and  _53
REMARK   25  A    between atoms: _53  and  _54
REMARK   26  A    between atoms: _63  and  _65
REMARK   27  A    between atoms: _65  and  _66
REMARK   28  A    between atoms: _65  and  _68
REMARK   29  A    between atoms: _68  and  _69
REMARK   30  A    between atoms: _72  and  _74
REMARK   31  A    between atoms: _74  and  _75
REMARK   32  A    between atoms: _74  and  _77
REMARK   33  A    between atoms: _77  and  _78
REMARK   34  A    between atoms: _78  and  _79
REMARK   35  A    between atoms: _79  and  _80
REMARK   36  A    between atoms: _89  and  _91
REMARK   37  A    between atoms: _91  and  _92
REMARK   38  A    between atoms: _91  and  _94
REMARK   39  A    between atoms: _94  and  _95
REMARK   40  A    between atoms: _98  and  _100
REMARK   41  A    between atoms: _100  and  _101
REMARK   42  A    between atoms: _100  and  _103
REMARK   43  A    between atoms: _103  and  _104
REMARK   44  A    between atoms: _106  and  _108
REMARK   45  A    between atoms: _108  and  _109
REMARK   46  A    between atoms: _108  and  _111
REMARK   47  A    between atoms: _111  and  _112
REMARK   48  A    between atoms: _118  and  _120
REMARK   49  A    between atoms: _120  and  _121
REMARK   50  A    between atoms: _120  and  _123
REMARK   51  A    between atoms: _123  and  _124
REMARK   52  A    between atoms: _124  and  _125
REMARK   53  A    between atoms: _125  and  _126
REMARK   54  A    between atoms: _135  and  _137
REMARK   55  A    between atoms: _137  and  _138
REMARK   56  A    between atoms: _141  and  _143
REMARK   57  A    between atoms: _143  and  _144
REMARK   58  A    between atoms: _146  and  _148
REMARK   59  A    between atoms: _148  and  _149
REMARK   60  A    between atoms: _148  and  _151
REMARK   61  A    between atoms: _151  and  _152
REMARK   62  A    between atoms: _155  and  _157
REMARK   63  A    between atoms: _157  and  _158
REMARK   64  A    between atoms: _160  and  _162
REMARK   65  A    between atoms: _162  and  _163
REMARK   66  A    between atoms: _162  and  _165
REMARK   67  A    between atoms: _165  and  _166
REMARK   68  A    between atoms: _168  and  _170
REMARK   69  A    between atoms: _170  and  _171
REMARK   70  A    between atoms: _170  and  _173
REMARK   71  A    between atoms: _173  and  _174
REMARK   72  A    between atoms: _174  and  _175
REMARK   73  A    between atoms: _180  and  _182
REMARK   74  A    between atoms: _182  and  _183
REMARK   75  A    between atoms: _182  and  _185
REMARK   76  A    between atoms: _185  and  _186
REMARK   77  A    between atoms: _191  and  _193
REMARK   78  A    between atoms: _193  and  _194
REMARK   79  A    between atoms: _193  and  _196
REMARK   80  A    between atoms: _196  and  _197
REMARK   81  A    between atoms: _200  and  _202
REMARK   82  A    between atoms: _202  and  _203
REMARK   83  A    between atoms: _202  and  _205
REMARK   84  A    between atoms: _205  and  _206
REMARK   85  A    between atoms: _206  and  _207
REMARK   86  A    between atoms: _212  and  _214
REMARK   87  A    between atoms: _214  and  _215
REMARK   88  A    between atoms: _214  and  _217
REMARK   89  A    between atoms: _217  and  _218
REMARK   90  A    between atoms: _221  and  _223
REMARK   91  A    between atoms: _223  and  _224
REMARK   92  A    between atoms: _223  and  _226
REMARK   93  A    between atoms: _226  and  _227
REMARK   94  A    between atoms: _230  and  _232
REMARK   95  A    between atoms: _232  and  _233
REMARK   96  A    between atoms: _232  and  _235
REMARK   97  A    between atoms: _238  and  _240
REMARK   98  A    between atoms: _240  and  _241
REMARK   99  A    between atoms: _240  and  _243
REMARK  100  A    between atoms: _243  and  _244
REMARK  101  A    between atoms: _247  and  _249
REMARK  102  A    between atoms: _249  and  _250
REMARK  103  A    between atoms: _249  and  _252
REMARK  104  A    between atoms: _252  and  _253
REMARK  105  A    between atoms: _258  and  _259
REMARK  106  A    between atoms: _261  and  _263
REMARK  107  A    between atoms: _263  and  _264
REMARK  108  A    between atoms: _266  and  _268
REMARK  109  A    between atoms: _268  and  _269
REMARK  110  A    between atoms: _268  and  _271
REMARK  111  A    between atoms: _271  and  _272
REMARK  112  A    between atoms: _272  and  _273
REMARK  113  A    between atoms: _273  and  _274
REMARK  114  A    between atoms: _283  and  _285
REMARK  115  A    between atoms: _285  and  _286
REMARK  116  A    between atoms: _285  and  _288
REMARK  117  A    between atoms: _288  and  _289
REMARK  118  A    between atoms: _292  and  _294
REMARK  119  A    between atoms: _294  and  _295
REMARK  120  A    between atoms: _294  and  _297
REMARK  121  A    between atoms: _300  and  _302
REMARK  122  A    between atoms: _302  and  _303
REMARK  123  A    between atoms: _302  and  _305
REMARK  124  A    between atoms: _305  and  _306
REMARK  125  A    between atoms: _311  and  _313
REMARK  126  A    between atoms: _313  and  _314
REMARK  127  A    between atoms: _313  and  _316
REMARK  128  A    between atoms: _316  and  _317
REMARK  129  A    between atoms: _319  and  _321
REMARK  130  A    between atoms: _321  and  _322
REMARK  131  A    between atoms: _321  and  _324
REMARK  132  A    between atoms: _324  and  _325
REMARK  133  A    between atoms: _330  and  _331
REMARK  134  A    between atoms: _333  and  _335
REMARK  135  A    between atoms: _335  and  _336
REMARK  136  A    between atoms: _335  and  _338
REMARK  137  A    between atoms: _338  and  _339
REMARK  138  A    between atoms: _339  and  _340
REMARK  139  A    between atoms: _342  and  _344
REMARK  140  A    between atoms: _344  and  _345
REMARK  141  A    between atoms: _344  and  _347
REMARK  142  A    between atoms: _347  and  _348
REMARK  143  A    between atoms: _351  and  _353
REMARK  144  A    between atoms: _353  and  _354
REMARK  145  A    between atoms: _353  and  _356
REMARK  146  A    between atoms: _356  and  _357
REMARK  147  A    between atoms: _357  and  _358
REMARK  148  A    between atoms: _358  and  _359
REMARK  149  A    between atoms: _368  and  _370
REMARK  150  A    between atoms: _370  and  _371
REMARK  151  A    between atoms: _370  and  _373
REMARK  152  A    between atoms: _376  and  _378
REMARK  153  A    between atoms: _378  and  _379
REMARK  154  A    between atoms: _378  and  _381
REMARK  155  A    between atoms: _381  and  _382
REMARK  156  A    between atoms: _382  and  _383
REMARK  157  A    between atoms: _388  and  _390
REMARK  158  A    between atoms: _390  and  _391
REMARK  159  A    between atoms: _390  and  _393
REMARK  160  A    between atoms: _393  and  _394
REMARK  161  A    between atoms: _394  and  _395
REMARK  162  A    between atoms: _395  and  _396
REMARK  163  A    between atoms: _405  and  _407
REMARK  164  A    between atoms: _407  and  _408
REMARK  165  A    between atoms: _407  and  _410
REMARK  166  A    between atoms: _410  and  _411
REMARK  167  A    between atoms: _417  and  _418
REMARK  168  A    between atoms: _423  and  _425
REMARK  169  A    between atoms: _425  and  _426
REMARK  170  A    between atoms: _425  and  _428
REMARK  171  A    between atoms: _428  and  _429
REMARK  172  A    between atoms: _433  and  _434
REMARK  173  A    between atoms: _439  and  _441
REMARK  174  A    between atoms: _441  and  _442
REMARK  175  A    between atoms: _441  and  _444
REMARK  176  A    between atoms: _444  and  _445
REMARK  177  A    between atoms: _445  and  _446
REMARK  178  A    between atoms: _446  and  _447
REMARK  179  A    between atoms: _456  and  _458
REMARK  180  A    between atoms: _458  and  _459
REMARK  181  A    between atoms: _458  and  _461
REMARK  182  A    between atoms: _461  and  _462
REMARK  183  A    between atoms: _462  and  _463
REMARK  184  A    between atoms: _466  and  _468
REMARK  185  A    between atoms: _468  and  _469
REMARK  186  A    between atoms: _468  and  _471
REMARK  187  A    between atoms: _471  and  _472
REMARK  188  A    between atoms: _472  and  _473
REMARK  189  A    between atoms: _478  and  _480
REMARK  190  A    between atoms: _480  and  _481
REMARK  191  A    between atoms: _484  and  _486
REMARK  192  A    between atoms: _486  and  _487
REMARK  193  A    between atoms: _486  and  _489
REMARK  194  A    between atoms: _489  and  _490
REMARK  195  A    between atoms: _490  and  _491
REMARK  196  A    between atoms: _491  and  _492
REMARK  197  A    between atoms: _501  and  _503
REMARK  198  A    between atoms: _503  and  _504
REMARK  199  A    between atoms: _503  and  _506
REMARK  200  A    between atoms: _506  and  _507
REMARK  201  A    between atoms: _509  and  _511
REMARK  202  A    between atoms: _511  and  _512
REMARK  203  A    between atoms: _511  and  _514
REMARK  204  A    between atoms: _514  and  _515
REMARK  205  A    between atoms: _518  and  _520
REMARK  206  A    between atoms: _520  and  _521
REMARK  207  A    between atoms: _523  and  _525
REMARK  208  A    between atoms: _525  and  _526
REMARK  209  A    between atoms: _525  and  _528
REMARK  210  A    between atoms: _528  and  _529
REMARK  211  A    between atoms: _529  and  _530
REMARK  212  A    between atoms: _530  and  _531
REMARK  213  A    between atoms: _531  and  _532
REMARK  214  A    between atoms: _536  and  _538
REMARK  215  A    between atoms: _538  and  _539
REMARK  216  A    between atoms: _538  and  _541
REMARK  217  A    between atoms: _541  and  _542
REMARK  218  A    between atoms: _542  and  _543
REMARK  219  A    between atoms: _543  and  _544
REMARK  220  A    between atoms: _544  and  _545
REMARK  221  A    between atoms: _549  and  _551
REMARK  222  A    between atoms: _551  and  _552
REMARK  223  A    between atoms: _551  and  _554
REMARK  224  A    between atoms: _554  and  _555
REMARK  225  A    between atoms: _555  and  _556
REMARK  226  A    between atoms: _559  and  _561
REMARK  227  A    between atoms: _561  and  _562
REMARK  228  A    between atoms: _561  and  _564
REMARK  229  A    between atoms: _567  and  _569
REMARK  230  A    between atoms: _569  and  _570
REMARK  231  A    between atoms: _569  and  _572
REMARK  232  A    between atoms: _572  and  _573
REMARK  233  A    between atoms: _578  and  _579
REMARK                            x       y       z     vdW  Elec       q    Type
REMARK                         _______ _______ _______ _____ _____    ______ ____
ROOT
ATOM      1  C   GLN A   1      36.390  37.146  15.917  0.00  0.00    +0.238 C 
ATOM      2  O   GLN A   1      37.483  37.245  16.502  0.00  0.00    -0.274 OA
ATOM      3  N   HIS A   2      36.155  36.277  14.923  0.00  0.00    -0.298 N 
ATOM      4  H   HIS A   2      35.197  36.240  14.521  0.00  0.00    +0.150 HD
ENDROOT
BRANCH   1   5
ATOM      5  CA  GLN A   1      35.195  38.020  16.343  0.00  0.00    +0.145 C 
BRANCH   5   6
ATOM      6  N   GLN A   1      35.250  38.671  17.656  0.00  0.00    -0.238 NA
ATOM      7  H   GLN A   1      35.904  39.470  17.780  0.00  0.00    +0.142 HD
ENDBRANCH   5   6
BRANCH   5   8
ATOM      8  CB  GLN A   1      34.951  39.097  15.288  0.00  0.00    +0.036 C 
BRANCH   8   9
ATOM      9  CG  GLN A   1      33.730  39.950  15.587  0.00  0.00    +0.087 C 
BRANCH   9  10
ATOM     10  CD  GLN A   1      32.400  39.197  15.399  0.00  0.00    +0.219 C 
ATOM     11  NE2 GLN A   1      31.404  39.495  16.242  0.00  0.00    -0.329 N 
ATOM     12 HE21 GLN A   1      31.551  40.199  16.993  0.00  0.00    +0.145 HD
ATOM     13 HE22 GLN A   1      30.483  39.022  16.146  0.00  0.00    +0.145 HD
ATOM     14  OE1 GLN A   1      32.280  38.374  14.496  0.00  0.00    -0.275 OA
ENDBRANCH   9  10
ENDBRANCH   8   9
ENDBRANCH   5   8
ENDBRANCH   1   5
BRANCH   3  15
ATOM     15  CA  HIS A   2      37.177  35.370  14.367  0.00  0.00    +0.143 C 
BRANCH  15  16
ATOM     16  C   HIS A   2      36.640  34.957  12.991  0.00  0.00    +0.227 C 
ATOM     17  O   HIS A   2      36.484  33.768  12.682  0.00  0.00    -0.286 OA
ENDBRANCH  15  16
BRANCH  15  18
ATOM     18  CB  HIS A   2      37.339  34.134  15.259  0.00  0.00    +0.075 C 
BRANCH  18  19
ATOM     19  CG  HIS A   2      38.620  33.399  15.044  0.00  0.00    +0.082 A 
ATOM     20  CD2 HIS A   2      39.146  32.319  15.674  0.00  0.00    +0.115 A 
ATOM     21  NE2 HIS A   2      40.317  31.998  15.023  0.00  0.00    -0.221 NA
ATOM     22  CE1 HIS A   2      40.502  32.854  14.032  0.00  0.00    +0.199 A 
ATOM     23  ND1 HIS A   2      39.494  33.709  14.025  0.00  0.00    -0.227 NA
ENDBRANCH  18  19
ENDBRANCH  15  18
ENDBRANCH   3  15
TORSDOF 9
REMARK  Name = ../refined-set-2016/2fzg/2fzg_pocket.pdb
REMARK  233 active torsions:
REMARK  status: ('A' for Active; 'I' for Inactive)
REMARK    1  A    between atoms: _1  and  _3
REMARK    2  A    between atoms: _3  and  _4
REMARK    3  A    between atoms: _3  and  _6
REMARK    4  A    between atoms: _6  and  _7
REMARK    5  A    between atoms: _13  and  _15
REMARK    6  A    between atoms: _15  and  _16
REMARK    7  A    between atoms: _15  and  _18
REMARK    8  A    between atoms: _18  and  _19
REMARK    9  A    between atoms: _19  and  _20
REMARK   10  A    between atoms: _23  and  _25
REMARK   11  A    between atoms: _25  and  _26
REMARK   12  A    between atoms: _29  and  _31
REMARK   13  A    between atoms: _31  and  _32
REMARK   14  A    between atoms: _31  and  _34
REMARK   15  A    between atoms: _34  and  _35
REMARK   16  A    between atoms: _37  and  _39
REMARK   17  A    between atoms: _39  and  _40
REMARK   18  A    between atoms: _39  and  _42
REMARK   19  A    between atoms: _42  and  _43
REMARK   20  A    between atoms: _46  and  _48
REMARK   21  A    between atoms: _48  and  _49
REMARK   22  A    between atoms: _48  and  _51
REMARK   23  A    between atoms: _51  and  _52
REMARK   24  A    between atoms: _52  and  _53
REMARK   25  A    between atoms: _53  and  _54
REMARK   26  A    between atoms: _63  and  _65
REMARK   27  A    between atoms: _65  and  _66
REMARK   28  A    between atoms: _65  and  _68
REMARK   29  A    between atoms: _68  and  _69
REMARK   30  A    between atoms: _72  and  _74
REMARK   31  A    between atoms: _74  and  _75
REMARK   32  A    between atoms: _74  and  _77
REMARK   33  A    between atoms: _77  and  _78
REMARK   34  A    between atoms: _78  and  _79
REMARK   35  A    between atoms: _79  and  _80
REMARK   36  A    between atoms: _89  and  _91
REMARK   37  A    between atoms: _91  and  _92
REMARK   38  A    between atoms: _91  and  _94
REMARK   39  A    between atoms: _94  and  _95
REMARK   40  A    between atoms: _98  and  _100
REMARK   41  A    between atoms: _100  and  _101
REMARK   42  A    between atoms: _100  and  _103
REMARK   43  A    between atoms: _103  and  _104
REMARK   44  A    between atoms: _106  and  _108
REMARK   45  A    between atoms: _108  and  _109
REMARK   46  A    between atoms: _108  and  _111
REMARK   47  A    between atoms: _111  and  _112
REMARK   48  A    between atoms: _118  and  _120
REMARK   49  A    between atoms: _120  and  _121
REMARK   50  A    between atoms: _120  and  _123
REMARK   51  A    between atoms: _123  and  _124
REMARK   52  A    between atoms: _124  and  _125
REMARK   53  A    between atoms: _125  and  _126
REMARK   54  A    between atoms: _135  and  _137
REMARK   55  A    between atoms: _137  and  _138
REMARK   56  A    between atoms: _141  and  _143
REMARK   57  A    between atoms: _143  and  _144
REMARK   58  A    between atoms: _146  and  _148
REMARK   59  A    between atoms: _148  and  _149
REMARK   60  A    between atoms: _148  and  _151
REMARK   61  A    between atoms: _151  and  _152
REMARK   62  A    between atoms: _155  and  _157
REMARK   63  A    between atoms: _157  and  _158
REMARK   64  A    between atoms: _160  and  _162
REMARK   65  A    between atoms: _162  and  _163
REMARK   66  A    between atoms: _162  and  _165
REMARK   67  A    between atoms: _165  and  _166
REMARK   68  A    between atoms: _168  and  _170
REMARK   69  A    between atoms: _170  and  _171
REMARK   70  A    between atoms: _170  and  _173
REMARK   71  A    between atoms: _173  and  _174
REMARK   72  A    between atoms: _174  and  _175
REMARK   73  A    between atoms: _180  and  _182
REMARK   74  A    between atoms: _182  and  _183
REMARK   75  A    between atoms: _182  and  _185
REMARK   76  A    between atoms: _185  and  _186
REMARK   77  A    between atoms: _191  and  _193
REMARK   78  A    between atoms: _193  and  _194
REMARK   79  A    between atoms: _193  and  _196
REMARK   80  A    between atoms: _196  and  _197
REMARK   81  A    between atoms: _200  and  _202
REMARK   82  A    between atoms: _202  and  _203
REMARK   83  A    between atoms: _202  and  _205
REMARK   84  A    between atoms: _205  and  _206
REMARK   85  A    between atoms: _206  and  _207
REMARK   86  A    between atoms: _212  and  _214
REMARK   87  A    between atoms: _214  and  _215
REMARK   88  A    between atoms: _214  and  _217
REMARK   89  A    between atoms: _217  and  _218
REMARK   90  A    between atoms: _221  and  _223
REMARK   91  A    between atoms: _223  and  _224
REMARK   92  A    between atoms: _223  and  _226
REMARK   93  A    between atoms: _226  and  _227
REMARK   94  A    between atoms: _230  and  _232
REMARK   95  A    between atoms: _232  and  _233
REMARK   96  A    between atoms: _232  and  _235
REMARK   97  A    between atoms: _238  and  _240
REMARK   98  A    between atoms: _240  and  _241
REMARK   99  A    between atoms: _240  and  _243
REMARK  100  A    between atoms: _243  and  _244
REMARK  101  A    between atoms: _247  and  _249
REMARK  102  A    between atoms: _249  and  _250
REMARK  103  A    between atoms: _249  and  _252
REMARK  104  A    between atoms: _252  and  _253
REMARK  105  A    between atoms: _258  and  _259
REMARK  106  A    between atoms: _261  and  _263
REMARK  107  A    between atoms: _263  and  _264
REMARK  108  A    between atoms: _266  and  _268
REMARK  109  A    between atoms: _268  and  _269
REMARK  110  A    between atoms: _268  and  _271
REMARK  111  A    between atoms: _271  and  _272
REMARK  112  A    between atoms: _272  and  _273
REMARK  113  A    between atoms: _273  and  _274
REMARK  114  A    between atoms: _283  and  _285
REMARK  115  A    between atoms: _285  and  _286
REMARK  116  A    between atoms: _285  and  _288
REMARK  117  A    between atoms: _288  and  _289
REMARK  118  A    between atoms: _292  and  _294
REMARK  119  A    between atoms: _294  and  _295
REMARK  120  A    between atoms: _294  and  _297
REMARK  121  A    between atoms: _300  and  _302
REMARK  122  A    between atoms: _302  and  _303
REMARK  123  A    between atoms: _302  and  _305
REMARK  124  A    between atoms: _305  and  _306
REMARK  125  A    between atoms: _311  and  _313
REMARK  126  A    between atoms: _313  and  _314
REMARK  127  A    between atoms: _313  and  _316
REMARK  128  A    between atoms: _316  and  _317
REMARK  129  A    between atoms: _319  and  _321
REMARK  130  A    between atoms: _321  and  _322
REMARK  131  A    between atoms: _321  and  _324
REMARK  132  A    between atoms: _324  and  _325
REMARK  133  A    between atoms: _330  and  _331
REMARK  134  A    between atoms: _333  and  _335
REMARK  135  A    between atoms: _335  and  _336
REMARK  136  A    between atoms: _335  and  _338
REMARK  137  A    between atoms: _338  and  _339
REMARK  138  A    between atoms: _339  and  _340
REMARK  139  A    between atoms: _342  and  _344
REMARK  140  A    between atoms: _344  and  _345
REMARK  141  A    between atoms: _344  and  _347
REMARK  142  A    between atoms: _347  and  _348
REMARK  143  A    between atoms: _351  and  _353
REMARK  144  A    between atoms: _353  and  _354
REMARK  145  A    between atoms: _353  and  _356
REMARK  146  A    between atoms: _356  and  _357
REMARK  147  A    between atoms: _357  and  _358
REMARK  148  A    between atoms: _358  and  _359
REMARK  149  A    between atoms: _368  and  _370
REMARK  150  A    between atoms: _370  and  _371
REMARK  151  A    between atoms: _370  and  _373
REMARK  152  A    between atoms: _376  and  _378
REMARK  153  A    between atoms: _378  and  _379
REMARK  154  A    between atoms: _378  and  _381
REMARK  155  A    between atoms: _381  and  _382
REMARK  156  A    between atoms: _382  and  _383
REMARK  157  A    between atoms: _388  and  _390
REMARK  158  A    between atoms: _390  and  _391
REMARK  159  A    between atoms: _390  and  _393
REMARK  160  A    between atoms: _393  and  _394
REMARK  161  A    between atoms: _394  and  _395
REMARK  162  A    between atoms: _395  and  _396
REMARK  163  A    between atoms: _405  and  _407
REMARK  164  A    between atoms: _407  and  _408
REMARK  165  A    between atoms: _407  and  _410
REMARK  166  A    between atoms: _410  and  _411
REMARK  167  A    between atoms: _417  and  _418
REMARK  168  A    between atoms: _423  and  _425
REMARK  169  A    between atoms: _425  and  _426
REMARK  170  A    between atoms: _425  and  _428
REMARK  171  A    between atoms: _428  and  _429
REMARK  172  A    between atoms: _433  and  _434
REMARK  173  A    between atoms: _439  and  _441
REMARK  174  A    between atoms: _441  and  _442
REMARK  175  A    between atoms: _441  and  _444
REMARK  176  A    between atoms: _444  and  _445
REMARK  177  A    between atoms: _445  and  _446
REMARK  178  A    between atoms: _446  and  _447
REMARK  179  A    between atoms: _456  and  _458
REMARK  180  A    between atoms: _458  and  _459
REMARK  181  A    between atoms: _458  and  _461
REMARK  182  A    between atoms: _461  and  _462
REMARK  183  A    between atoms: _462  and  _463
REMARK  184  A    between atoms: _466  and  _468
REMARK  185  A    between atoms: _468  and  _469
REMARK  186  A    between atoms: _468  and  _471
REMARK  187  A    between atoms: _471  and  _472
REMARK  188  A    between atoms: _472  and  _473
REMARK  189  A    between atoms: _478  and  _480
REMARK  190  A    between atoms: _480  and  _481
REMARK  191  A    between atoms: _484  and  _486
REMARK  192  A    between atoms: _486  and  _487
REMARK  193  A    between atoms: _486  and  _489
REMARK  194  A    between atoms: _489  and  _490
REMARK  195  A    between atoms: _490  and  _491
REMARK  196  A    between atoms: _491  and  _492
REMARK  197  A    between atoms: _501  and  _503
REMARK  198  A    between atoms: _503  and  _504
REMARK  199  A    between atoms: _503  and  _506
REMARK  200  A    between atoms: _506  and  _507
REMARK  201  A    between atoms: _509  and  _511
REMARK  202  A    between atoms: _511  and  _512
REMARK  203  A    between atoms: _511  and  _514
REMARK  204  A    between atoms: _514  and  _515
REMARK  205  A    between atoms: _518  and  _520
REMARK  206  A    between atoms: _520  and  _521
REMARK  207  A    between atoms: _523  and  _525
REMARK  208  A    between atoms: _525  and  _526
REMARK  209  A    between atoms: _525  and  _528
REMARK  210  A    between atoms: _528  and  _529
REMARK  211  A    between atoms: _529  and  _530
REMARK  212  A    between atoms: _530  and  _531
REMARK  213  A    between atoms: _531  and  _532
REMARK  214  A    between atoms: _536  and  _538
REMARK  215  A    between atoms: _538  and  _539
REMARK  216  A    between atoms: _538  and  _541
REMARK  217  A    between atoms: _541  and  _542
REMARK  218  A    between atoms: _542  and  _543
REMARK  219  A    between atoms: _543  and  _544
REMARK  220  A    between atoms: _544  and  _545
REMARK  221  A    between atoms: _549  and  _551
REMARK  222  A    between atoms: _551  and  _552
REMARK  223  A    between atoms: _551  and  _554
REMARK  224  A    between atoms: _554  and  _555
REMARK  225  A    between atoms: _555  and  _556
REMARK  226  A    between atoms: _559  and  _561
REMARK  227  A    between atoms: _561  and  _562
REMARK  228  A    between atoms: _561  and  _564
REMARK  229  A    between atoms: _567  and  _569
REMARK  230  A    between atoms: _569  and  _570
REMARK  231  A    between atoms: _569  and  _572
REMARK  232  A    between atoms: _572  and  _573
REMARK  233  A    between atoms: _578  and  _579
REMARK                            x       y       z     vdW  Elec       q    Type
REMARK                         _______ _______ _______ _____ _____    ______ ____
ROOT
ATOM      1  C   THR A   1      38.228  32.156   9.539  0.00  0.00    +0.241 C 
ATOM      2  N   GLN A   2      38.007  31.944  10.833  0.00  0.00    -0.298 N 
ATOM      3  H   GLN A   2      38.064  32.731  11.511  0.00  0.00    +0.150 HD
ATOM      4  O   THR A   1      38.188  31.252   8.711  0.00  0.00    -0.274 OA
ENDROOT
BRANCH   1   5
ATOM      5  CA  THR A   1      38.493  33.581   9.066  0.00  0.00    +0.172 C 
BRANCH   5   6
ATOM      6  N   THR A   1      37.861  34.589   9.934  0.00  0.00    -0.236 NA
ATOM      7  H   THR A   1      38.433  35.243  10.506  0.00  0.00    +0.142 HD
ENDBRANCH   5   6
BRANCH   5   8
ATOM      8  CB  THR A   1      40.030  33.824   8.819  0.00  0.00    +0.135 C 
ATOM      9  CG2 THR A   1      40.250  35.243   8.347  0.00  0.00    +0.034 C 
BRANCH   8  10
ATOM     10  OG1 THR A   1      40.786  33.603  10.015  0.00  0.00    -0.383 OA
ATOM     11  HG1 THR A   1      40.476  34.225  10.720  0.00  0.00    +0.210 HD
ENDBRANCH   8  10
ENDBRANCH   5   8
ENDBRANCH   1   5
BRANCH   2  12
ATOM     12  CA  GLN A   2      37.681  30.585  11.298  0.00  0.00    +0.137 C 
BRANCH  12  13
ATOM     13  C   GLN A   2      36.275  30.194  10.806  0.00  0.00    +0.227 C 
ATOM     14  O   GLN A   2      36.057  29.084  10.298  0.00  0.00    -0.286 OA
ENDBRANCH  12  13
BRANCH  12  15
ATOM     15  CB  GLN A   2      37.722  30.470  12.816  0.00  0.00    +0.037 C 
BRANCH  15  16
ATOM     16  CG  GLN A   2      37.279  29.103  13.302  0.00  0.00    +0.087 C 
BRANCH  16  17
ATOM     17  CD  GLN A   2      38.354  28.024  13.187  0.00  0.00    +0.219 C 
ATOM     18  OE1 GLN A   2      39.510  28.252  13.522  0.00  0.00    -0.275 OA
ATOM     19  NE2 GLN A   2      37.959  26.839  12.734  0.00  0.00    -0.329 N 
ATOM     20 HE21 GLN A   2      38.642  26.059  12.652  0.00  0.00    +0.145 HD
ATOM     21 HE22 GLN A   2      36.966  26.691  12.461  0.00  0.00    +0.145 HD
ENDBRANCH  16  17
ENDBRANCH  15  16
ENDBRANCH  12  15
ENDBRANCH   2  12
TORSDOF 9
REMARK  Name = ../refined-set-2016/2fzg/2fzg_pocket.pdb
REMARK  233 active torsions:
REMARK  status: ('A' for Active; 'I' for Inactive)
REMARK    1  A    between atoms: _1  and  _3
REMARK    2  A    between atoms: _3  and  _4
REMARK    3  A    between atoms: _3  and  _6
REMARK    4  A    between atoms: _6  and  _7
REMARK    5  A    between atoms: _13  and  _15
REMARK    6  A    between atoms: _15  and  _16
REMARK    7  A    between atoms: _15  and  _18
REMARK    8  A    between atoms: _18  and  _19
REMARK    9  A    between atoms: _19  and  _20
REMARK   10  A    between atoms: _23  and  _25
REMARK   11  A    between atoms: _25  and  _26
REMARK   12  A    between atoms: _29  and  _31
REMARK   13  A    between atoms: _31  and  _32
REMARK   14  A    between atoms: _31  and  _34
REMARK   15  A    between atoms: _34  and  _35
REMARK   16  A    between atoms: _37  and  _39
REMARK   17  A    between atoms: _39  and  _40
REMARK   18  A    between atoms: _39  and  _42
REMARK   19  A    between atoms: _42  and  _43
REMARK   20  A    between atoms: _46  and  _48
REMARK   21  A    between atoms: _48  and  _49
REMARK   22  A    between atoms: _48  and  _51
REMARK   23  A    between atoms: _51  and  _52
REMARK   24  A    between atoms: _52  and  _53
REMARK   25  A    between atoms: _53  and  _54
REMARK   26  A    between atoms: _63  and  _65
REMARK   27  A    between atoms: _65  and  _66
REMARK   28  A    between atoms: _65  and  _68
REMARK   29  A    between atoms: _68  and  _69
REMARK   30  A    between atoms: _72  and  _74
REMARK   31  A    between atoms: _74  and  _75
REMARK   32  A    between atoms: _74  and  _77
REMARK   33  A    between atoms: _77  and  _78
REMARK   34  A    between atoms: _78  and  _79
REMARK   35  A    between atoms: _79  and  _80
REMARK   36  A    between atoms: _89  and  _91
REMARK   37  A    between atoms: _91  and  _92
REMARK   38  A    between atoms: _91  and  _94
REMARK   39  A    between atoms: _94  and  _95
REMARK   40  A    between atoms: _98  and  _100
REMARK   41  A    between atoms: _100  and  _101
REMARK   42  A    between atoms: _100  and  _103
REMARK   43  A    between atoms: _103  and  _104
REMARK   44  A    between atoms: _106  and  _108
REMARK   45  A    between atoms: _108  and  _109
REMARK   46  A    between atoms: _108  and  _111
REMARK   47  A    between atoms: _111  and  _112
REMARK   48  A    between atoms: _118  and  _120
REMARK   49  A    between atoms: _120  and  _121
REMARK   50  A    between atoms: _120  and  _123
REMARK   51  A    between atoms: _123  and  _124
REMARK   52  A    between atoms: _124  and  _125
REMARK   53  A    between atoms: _125  and  _126
REMARK   54  A    between atoms: _135  and  _137
REMARK   55  A    between atoms: _137  and  _138
REMARK   56  A    between atoms: _141  and  _143
REMARK   57  A    between atoms: _143  and  _144
REMARK   58  A    between atoms: _146  and  _148
REMARK   59  A    between atoms: _148  and  _149
REMARK   60  A    between atoms: _148  and  _151
REMARK   61  A    between atoms: _151  and  _152
REMARK   62  A    between atoms: _155  and  _157
REMARK   63  A    between atoms: _157  and  _158
REMARK   64  A    between atoms: _160  and  _162
REMARK   65  A    between atoms: _162  and  _163
REMARK   66  A    between atoms: _162  and  _165
REMARK   67  A    between atoms: _165  and  _166
REMARK   68  A    between atoms: _168  and  _170
REMARK   69  A    between atoms: _170  and  _171
REMARK   70  A    between atoms: _170  and  _173
REMARK   71  A    between atoms: _173  and  _174
REMARK   72  A    between atoms: _174  and  _175
REMARK   73  A    between atoms: _180  and  _182
REMARK   74  A    between atoms: _182  and  _183
REMARK   75  A    between atoms: _182  and  _185
REMARK   76  A    between atoms: _185  and  _186
REMARK   77  A    between atoms: _191  and  _193
REMARK   78  A    between atoms: _193  and  _194
REMARK   79  A    between atoms: _193  and  _196
REMARK   80  A    between atoms: _196  and  _197
REMARK   81  A    between atoms: _200  and  _202
REMARK   82  A    between atoms: _202  and  _203
REMARK   83  A    between atoms: _202  and  _205
REMARK   84  A    between atoms: _205  and  _206
REMARK   85  A    between atoms: _206  and  _207
REMARK   86  A    between atoms: _212  and  _214
REMARK   87  A    between atoms: _214  and  _215
REMARK   88  A    between atoms: _214  and  _217
REMARK   89  A    between atoms: _217  and  _218
REMARK   90  A    between atoms: _221  and  _223
REMARK   91  A    between atoms: _223  and  _224
REMARK   92  A    between atoms: _223  and  _226
REMARK   93  A    between atoms: _226  and  _227
REMARK   94  A    between atoms: _230  and  _232
REMARK   95  A    between atoms: _232  and  _233
REMARK   96  A    between atoms: _232  and  _235
REMARK   97  A    between atoms: _238  and  _240
REMARK   98  A    between atoms: _240  and  _241
REMARK   99  A    between atoms: _240  and  _243
REMARK  100  A    between atoms: _243  and  _244
REMARK  101  A    between atoms: _247  and  _249
REMARK  102  A    between atoms: _249  and  _250
REMARK  103  A    between atoms: _249  and  _252
REMARK  104  A    between atoms: _252  and  _253
REMARK  105  A    between atoms: _258  and  _259
REMARK  106  A    between atoms: _261  and  _263
REMARK  107  A    between atoms: _263  and  _264
REMARK  108  A    between atoms: _266  and  _268
REMARK  109  A    between atoms: _268  and  _269
REMARK  110  A    between atoms: _268  and  _271
REMARK  111  A    between atoms: _271  and  _272
REMARK  112  A    between atoms: _272  and  _273
REMARK  113  A    between atoms: _273  and  _274
REMARK  114  A    between atoms: _283  and  _285
REMARK  115  A    between atoms: _285  and  _286
REMARK  116  A    between atoms: _285  and  _288
REMARK  117  A    between atoms: _288  and  _289
REMARK  118  A    between atoms: _292  and  _294
REMARK  119  A    between atoms: _294  and  _295
REMARK  120  A    between atoms: _294  and  _297
REMARK  121  A    between atoms: _300  and  _302
REMARK  122  A    between atoms: _302  and  _303
REMARK  123  A    between atoms: _302  and  _305
REMARK  124  A    between atoms: _305  and  _306
REMARK  125  A    between atoms: _311  and  _313
REMARK  126  A    between atoms: _313  and  _314
REMARK  127  A    between atoms: _313  and  _316
REMARK  128  A    between atoms: _316  and  _317
REMARK  129  A    between atoms: _319  and  _321
REMARK  130  A    between atoms: _321  and  _322
REMARK  131  A    between atoms: _321  and  _324
REMARK  132  A    between atoms: _324  and  _325
REMARK  133  A    between atoms: _330  and  _331
REMARK  134  A    between atoms: _333  and  _335
REMARK  135  A    between atoms: _335  and  _336
REMARK  136  A    between atoms: _335  and  _338
REMARK  137  A    between atoms: _338  and  _339
REMARK  138  A    between atoms: _339  and  _340
REMARK  139  A    between atoms: _342  and  _344
REMARK  140  A    between atoms: _344  and  _345
REMARK  141  A    between atoms: _344  and  _347
REMARK  142  A    between atoms: _347  and  _348
REMARK  143  A    between atoms: _351  and  _353
REMARK  144  A    between atoms: _353  and  _354
REMARK  145  A    between atoms: _353  and  _356
REMARK  146  A    between atoms: _356  and  _357
REMARK  147  A    between atoms: _357  and  _358
REMARK  148  A    between atoms: _358  and  _359
REMARK  149  A    between atoms: _368  and  _370
REMARK  150  A    between atoms: _370  and  _371
REMARK  151  A    between atoms: _370  and  _373
REMARK  152  A    between atoms: _376  and  _378
REMARK  153  A    between atoms: _378  and  _379
REMARK  154  A    between atoms: _378  and  _381
REMARK  155  A    between atoms: _381  and  _382
REMARK  156  A    between atoms: _382  and  _383
REMARK  157  A    between atoms: _388  and  _390
REMARK  158  A    between atoms: _390  and  _391
REMARK  159  A    between atoms: _390  and  _393
REMARK  160  A    between atoms: _393  and  _394
REMARK  161  A    between atoms: _394  and  _395
REMARK  162  A    between atoms: _395  and  _396
REMARK  163  A    between atoms: _405  and  _407
REMARK  164  A    between atoms: _407  and  _408
REMARK  165  A    between atoms: _407  and  _410
REMARK  166  A    between atoms: _410  and  _411
REMARK  167  A    between atoms: _417  and  _418
REMARK  168  A    between atoms: _423  and  _425
REMARK  169  A    between atoms: _425  and  _426
REMARK  170  A    between atoms: _425  and  _428
REMARK  171  A    between atoms: _428  and  _429
REMARK  172  A    between atoms: _433  and  _434
REMARK  173  A    between atoms: _439  and  _441
REMARK  174  A    between atoms: _441  and  _442
REMARK  175  A    between atoms: _441  and  _444
REMARK  176  A    between atoms: _444  and  _445
REMARK  177  A    between atoms: _445  and  _446
REMARK  178  A    between atoms: _446  and  _447
REMARK  179  A    between atoms: _456  and  _458
REMARK  180  A    between atoms: _458  and  _459
REMARK  181  A    between atoms: _458  and  _461
REMARK  182  A    between atoms: _461  and  _462
REMARK  183  A    between atoms: _462  and  _463
REMARK  184  A    between atoms: _466  and  _468
REMARK  185  A    between atoms: _468  and  _469
REMARK  186  A    between atoms: _468  and  _471
REMARK  187  A    between atoms: _471  and  _472
REMARK  188  A    between atoms: _472  and  _473
REMARK  189  A    between atoms: _478  and  _480
REMARK  190  A    between atoms: _480  and  _481
REMARK  191  A    between atoms: _484  and  _486
REMARK  192  A    between atoms: _486  and  _487
REMARK  193  A    between atoms: _486  and  _489
REMARK  194  A    between atoms: _489  and  _490
REMARK  195  A    between atoms: _490  and  _491
REMARK  196  A    between atoms: _491  and  _492
REMARK  197  A    between atoms: _501  and  _503
REMARK  198  A    between atoms: _503  and  _504
REMARK  199  A    between atoms: _503  and  _506
REMARK  200  A    between atoms: _506  and  _507
REMARK  201  A    between atoms: _509  and  _511
REMARK  202  A    between atoms: _511  and  _512
REMARK  203  A    between atoms: _511  and  _514
REMARK  204  A    between atoms: _514  and  _515
REMARK  205  A    between atoms: _518  and  _520
REMARK  206  A    between atoms: _520  and  _521
REMARK  207  A    between atoms: _523  and  _525
REMARK  208  A    between atoms: _525  and  _526
REMARK  209  A    between atoms: _525  and  _528
REMARK  210  A    between atoms: _528  and  _529
REMARK  211  A    between atoms: _529  and  _530
REMARK  212  A    between atoms: _530  and  _531
REMARK  213  A    between atoms: _531  and  _532
REMARK  214  A    between atoms: _536  and  _538
REMARK  215  A    between atoms: _538  and  _539
REMARK  216  A    between atoms: _538  and  _541
REMARK  217  A    between atoms: _541  and  _542
REMARK  218  A    between atoms: _542  and  _543
REMARK  219  A    between atoms: _543  and  _544
REMARK  220  A    between atoms: _544  and  _545
REMARK  221  A    between atoms: _549  and  _551
REMARK  222  A    between atoms: _551  and  _552
REMARK  223  A    between atoms: _551  and  _554
REMARK  224  A    between atoms: _554  and  _555
REMARK  225  A    between atoms: _555  and  _556
REMARK  226  A    between atoms: _559  and  _561
REMARK  227  A    between atoms: _561  and  _562
REMARK  228  A    between atoms: _561  and  _564
REMARK  229  A    between atoms: _567  and  _569
REMARK  230  A    between atoms: _569  and  _570
REMARK  231  A    between atoms: _569  and  _572
REMARK  232  A    between atoms: _572  and  _573
REMARK  233  A    between atoms: _578  and  _579
REMARK                            x       y       z     vdW  Elec       q    Type
REMARK                         _______ _______ _______ _____ _____    ______ ____
ROOT
ATOM      1  C   LEU A   1      35.818  26.803   7.390  0.00  0.00    +0.238 C 
ATOM      2  N   ASP A   2      35.150  27.058   8.498  0.00  0.00    -0.298 N 
ATOM      3  H   ASP A   2      35.376  27.916   9.040  0.00  0.00    +0.150 HD
ATOM      4  O   LEU A   1      35.629  25.819   6.709  0.00  0.00    -0.274 OA
ENDROOT
BRANCH   1   5
ATOM      5  CA  LEU A   1      36.815  27.855   6.933  0.00  0.00    +0.145 C 
BRANCH   5   6
ATOM      6  N   LEU A   1      36.259  29.175   7.218  0.00  0.00    -0.238 NA
ATOM      7  H   LEU A   1      36.577  29.726   8.041  0.00  0.00    +0.142 HD
ENDBRANCH   5   6
BRANCH   5   8
ATOM      8  CB  LEU A   1      38.191  27.711   7.578  0.00  0.00    +0.026 C 
BRANCH   8   9
ATOM      9  CG  LEU A   1      38.377  27.387   9.051  0.00  0.00    +0.002 C 
ATOM     10  CD2 LEU A   1      39.731  27.929   9.399  0.00  0.00    +0.000 C 
ATOM     11  CD1 LEU A   1      38.310  25.857   9.298  0.00  0.00    +0.000 C 
ENDBRANCH   8   9
ENDBRANCH   5   8
ENDBRANCH   1   5
BRANCH   2  12
ATOM     12  CA  ASP A   2      34.099  26.165   8.985  0.00  0.00    +0.148 C 
BRANCH  12  13
ATOM     13  C   ASP A   2      33.020  26.115   7.894  0.00  0.00    +0.227 C 
ATOM     14  O   ASP A   2      32.635  25.038   7.453  0.00  0.00    -0.286 OA
ENDBRANCH  12  13
BRANCH  12  15
ATOM     15  CB  ASP A   2      33.492  26.690  10.308  0.00  0.00    +0.142 C 
BRANCH  15  16
ATOM     16  CG  ASP A   2      34.483  26.672  11.476  0.00  0.00    +0.367 C 
ATOM     17  OD2 ASP A   2      34.222  27.344  12.500  0.00  0.00    -0.246 OA
ATOM     18  OD1 ASP A   2      35.517  25.965  11.381  0.00  0.00    -0.246 OA
ENDBRANCH  15  16
ENDBRANCH  12  15
ENDBRANCH   2  12
TORSDOF 8
REMARK  Name = ../refined-set-2016/2fzg/2fzg_pocket.pdb
REMARK  233 active torsions:
REMARK  status: ('A' for Active; 'I' for Inactive)
REMARK    1  A    between atoms: _1  and  _3
REMARK    2  A    between atoms: _3  and  _4
REMARK    3  A    between atoms: _3  and  _6
REMARK    4  A    between atoms: _6  and  _7
REMARK    5  A    between atoms: _13  and  _15
REMARK    6  A    between atoms: _15  and  _16
REMARK    7  A    between atoms: _15  and  _18
REMARK    8  A    between atoms: _18  and  _19
REMARK    9  A    between atoms: _19  and  _20
REMARK   10  A    between atoms: _23  and  _25
REMARK   11  A    between atoms: _25  and  _26
REMARK   12  A    between atoms: _29  and  _31
REMARK   13  A    between atoms: _31  and  _32
REMARK   14  A    between atoms: _31  and  _34
REMARK   15  A    between atoms: _34  and  _35
REMARK   16  A    between atoms: _37  and  _39
REMARK   17  A    between atoms: _39  and  _40
REMARK   18  A    between atoms: _39  and  _42
REMARK   19  A    between atoms: _42  and  _43
REMARK   20  A    between atoms: _46  and  _48
REMARK   21  A    between atoms: _48  and  _49
REMARK   22  A    between atoms: _48  and  _51
REMARK   23  A    between atoms: _51  and  _52
REMARK   24  A    between atoms: _52  and  _53
REMARK   25  A    between atoms: _53  and  _54
REMARK   26  A    between atoms: _63  and  _65
REMARK   27  A    between atoms: _65  and  _66
REMARK   28  A    between atoms: _65  and  _68
REMARK   29  A    between atoms: _68  and  _69
REMARK   30  A    between atoms: _72  and  _74
REMARK   31  A    between atoms: _74  and  _75
REMARK   32  A    between atoms: _74  and  _77
REMARK   33  A    between atoms: _77  and  _78
REMARK   34  A    between atoms: _78  and  _79
REMARK   35  A    between atoms: _79  and  _80
REMARK   36  A    between atoms: _89  and  _91
REMARK   37  A    between atoms: _91  and  _92
REMARK   38  A    between atoms: _91  and  _94
REMARK   39  A    between atoms: _94  and  _95
REMARK   40  A    between atoms: _98  and  _100
REMARK   41  A    between atoms: _100  and  _101
REMARK   42  A    between atoms: _100  and  _103
REMARK   43  A    between atoms: _103  and  _104
REMARK   44  A    between atoms: _106  and  _108
REMARK   45  A    between atoms: _108  and  _109
REMARK   46  A    between atoms: _108  and  _111
REMARK   47  A    between atoms: _111  and  _112
REMARK   48  A    between atoms: _118  and  _120
REMARK   49  A    between atoms: _120  and  _121
REMARK   50  A    between atoms: _120  and  _123
REMARK   51  A    between atoms: _123  and  _124
REMARK   52  A    between atoms: _124  and  _125
REMARK   53  A    between atoms: _125  and  _126
REMARK   54  A    between atoms: _135  and  _137
REMARK   55  A    between atoms: _137  and  _138
REMARK   56  A    between atoms: _141  and  _143
REMARK   57  A    between atoms: _143  and  _144
REMARK   58  A    between atoms: _146  and  _148
REMARK   59  A    between atoms: _148  and  _149
REMARK   60  A    between atoms: _148  and  _151
REMARK   61  A    between atoms: _151  and  _152
REMARK   62  A    between atoms: _155  and  _157
REMARK   63  A    between atoms: _157  and  _158
REMARK   64  A    between atoms: _160  and  _162
REMARK   65  A    between atoms: _162  and  _163
REMARK   66  A    between atoms: _162  and  _165
REMARK   67  A    between atoms: _165  and  _166
REMARK   68  A    between atoms: _168  and  _170
REMARK   69  A    between atoms: _170  and  _171
REMARK   70  A    between atoms: _170  and  _173
REMARK   71  A    between atoms: _173  and  _174
REMARK   72  A    between atoms: _174  and  _175
REMARK   73  A    between atoms: _180  and  _182
REMARK   74  A    between atoms: _182  and  _183
REMARK   75  A    between atoms: _182  and  _185
REMARK   76  A    between atoms: _185  and  _186
REMARK   77  A    between atoms: _191  and  _193
REMARK   78  A    between atoms: _193  and  _194
REMARK   79  A    between atoms: _193  and  _196
REMARK   80  A    between atoms: _196  and  _197
REMARK   81  A    between atoms: _200  and  _202
REMARK   82  A    between atoms: _202  and  _203
REMARK   83  A    between atoms: _202  and  _205
REMARK   84  A    between atoms: _205  and  _206
REMARK   85  A    between atoms: _206  and  _207
REMARK   86  A    between atoms: _212  and  _214
REMARK   87  A    between atoms: _214  and  _215
REMARK   88  A    between atoms: _214  and  _217
REMARK   89  A    between atoms: _217  and  _218
REMARK   90  A    between atoms: _221  and  _223
REMARK   91  A    between atoms: _223  and  _224
REMARK   92  A    between atoms: _223  and  _226
REMARK   93  A    between atoms: _226  and  _227
REMARK   94  A    between atoms: _230  and  _232
REMARK   95  A    between atoms: _232  and  _233
REMARK   96  A    between atoms: _232  and  _235
REMARK   97  A    between atoms: _238  and  _240
REMARK   98  A    between atoms: _240  and  _241
REMARK   99  A    between atoms: _240  and  _243
REMARK  100  A    between atoms: _243  and  _244
REMARK  101  A    between atoms: _247  and  _249
REMARK  102  A    between atoms: _249  and  _250
REMARK  103  A    between atoms: _249  and  _252
REMARK  104  A    between atoms: _252  and  _253
REMARK  105  A    between atoms: _258  and  _259
REMARK  106  A    between atoms: _261  and  _263
REMARK  107  A    between atoms: _263  and  _264
REMARK  108  A    between atoms: _266  and  _268
REMARK  109  A    between atoms: _268  and  _269
REMARK  110  A    between atoms: _268  and  _271
REMARK  111  A    between atoms: _271  and  _272
REMARK  112  A    between atoms: _272  and  _273
REMARK  113  A    between atoms: _273  and  _274
REMARK  114  A    between atoms: _283  and  _285
REMARK  115  A    between atoms: _285  and  _286
REMARK  116  A    between atoms: _285  and  _288
REMARK  117  A    between atoms: _288  and  _289
REMARK  118  A    between atoms: _292  and  _294
REMARK  119  A    between atoms: _294  and  _295
REMARK  120  A    between atoms: _294  and  _297
REMARK  121  A    between atoms: _300  and  _302
REMARK  122  A    between atoms: _302  and  _303
REMARK  123  A    between atoms: _302  and  _305
REMARK  124  A    between atoms: _305  and  _306
REMARK  125  A    between atoms: _311  and  _313
REMARK  126  A    between atoms: _313  and  _314
REMARK  127  A    between atoms: _313  and  _316
REMARK  128  A    between atoms: _316  and  _317
REMARK  129  A    between atoms: _319  and  _321
REMARK  130  A    between atoms: _321  and  _322
REMARK  131  A    between atoms: _321  and  _324
REMARK  132  A    between atoms: _324  and  _325
REMARK  133  A    between atoms: _330  and  _331
REMARK  134  A    between atoms: _333  and  _335
REMARK  135  A    between atoms: _335  and  _336
REMARK  136  A    between atoms: _335  and  _338
REMARK  137  A    between atoms: _338  and  _339
REMARK  138  A    between atoms: _339  and  _340
REMARK  139  A    between atoms: _342  and  _344
REMARK  140  A    between atoms: _344  and  _345
REMARK  141  A    between atoms: _344  and  _347
REMARK  142  A    between atoms: _347  and  _348
REMARK  143  A    between atoms: _351  and  _353
REMARK  144  A    between atoms: _353  and  _354
REMARK  145  A    between atoms: _353  and  _356
REMARK  146  A    between atoms: _356  and  _357
REMARK  147  A    between atoms: _357  and  _358
REMARK  148  A    between atoms: _358  and  _359
REMARK  149  A    between atoms: _368  and  _370
REMARK  150  A    between atoms: _370  and  _371
REMARK  151  A    between atoms: _370  and  _373
REMARK  152  A    between atoms: _376  and  _378
REMARK  153  A    between atoms: _378  and  _379
REMARK  154  A    between atoms: _378  and  _381
REMARK  155  A    between atoms: _381  and  _382
REMARK  156  A    between atoms: _382  and  _383
REMARK  157  A    between atoms: _388  and  _390
REMARK  158  A    between atoms: _390  and  _391
REMARK  159  A    between atoms: _390  and  _393
REMARK  160  A    between atoms: _393  and  _394
REMARK  161  A    between atoms: _394  and  _395
REMARK  162  A    between atoms: _395  and  _396
REMARK  163  A    between atoms: _405  and  _407
REMARK  164  A    between atoms: _407  and  _408
REMARK  165  A    between atoms: _407  and  _410
REMARK  166  A    between atoms: _410  and  _411
REMARK  167  A    between atoms: _417  and  _418
REMARK  168  A    between atoms: _423  and  _425
REMARK  169  A    between atoms: _425  and  _426
REMARK  170  A    between atoms: _425  and  _428
REMARK  171  A    between atoms: _428  and  _429
REMARK  172  A    between atoms: _433  and  _434
REMARK  173  A    between atoms: _439  and  _441
REMARK  174  A    between atoms: _441  and  _442
REMARK  175  A    between atoms: _441  and  _444
REMARK  176  A    between atoms: _444  and  _445
REMARK  177  A    between atoms: _445  and  _446
REMARK  178  A    between atoms: _446  and  _447
REMARK  179  A    between atoms: _456  and  _458
REMARK  180  A    between atoms: _458  and  _459
REMARK  181  A    between atoms: _458  and  _461
REMARK  182  A    between atoms: _461  and  _462
REMARK  183  A    between atoms: _462  and  _463
REMARK  184  A    between atoms: _466  and  _468
REMARK  185  A    between atoms: _468  and  _469
REMARK  186  A    between atoms: _468  and  _471
REMARK  187  A    between atoms: _471  and  _472
REMARK  188  A    between atoms: _472  and  _473
REMARK  189  A    between atoms: _478  and  _480
REMARK  190  A    between atoms: _480  and  _481
REMARK  191  A    between atoms: _484  and  _486
REMARK  192  A    between atoms: _486  and  _487
REMARK  193  A    between atoms: _486  and  _489
REMARK  194  A    between atoms: _489  and  _490
REMARK  195  A    between atoms: _490  and  _491
REMARK  196  A    between atoms: _491  and  _492
REMARK  197  A    between atoms: _501  and  _503
REMARK  198  A    between atoms: _503  and  _504
REMARK  199  A    between atoms: _503  and  _506
REMARK  200  A    between atoms: _506  and  _507
REMARK  201  A    between atoms: _509  and  _511
REMARK  202  A    between atoms: _511  and  _512
REMARK  203  A    between atoms: _511  and  _514
REMARK  204  A    between atoms: _514  and  _515
REMARK  205  A    between atoms: _518  and  _520
REMARK  206  A    between atoms: _520  and  _521
REMARK  207  A    between atoms: _523  and  _525
REMARK  208  A    between atoms: _525  and  _526
REMARK  209  A    between atoms: _525  and  _528
REMARK  210  A    between atoms: _528  and  _529
REMARK  211  A    between atoms: _529  and  _530
REMARK  212  A    between atoms: _530  and  _531
REMARK  213  A    between atoms: _531  and  _532
REMARK  214  A    between atoms: _536  and  _538
REMARK  215  A    between atoms: _538  and  _539
REMARK  216  A    between atoms: _538  and  _541
REMARK  217  A    between atoms: _541  and  _542
REMARK  218  A    between atoms: _542  and  _543
REMARK  219  A    between atoms: _543  and  _544
REMARK  220  A    between atoms: _544  and  _545
REMARK  221  A    between atoms: _549  and  _551
REMARK  222  A    between atoms: _551  and  _552
REMARK  223  A    between atoms: _551  and  _554
REMARK  224  A    between atoms: _554  and  _555
REMARK  225  A    between atoms: _555  and  _556
REMARK  226  A    between atoms: _559  and  _561
REMARK  227  A    between atoms: _561  and  _562
REMARK  228  A    between atoms: _561  and  _564
REMARK  229  A    between atoms: _567  and  _569
REMARK  230  A    between atoms: _569  and  _570
REMARK  231  A    between atoms: _569  and  _572
REMARK  232  A    between atoms: _572  and  _573
REMARK  233  A    between atoms: _578  and  _579
REMARK                            x       y       z     vdW  Elec       q    Type
REMARK                         _______ _______ _______ _____ _____    ______ ____
ROOT
ATOM      1  CA  VAL A   1      28.559  20.956  21.610  0.00  0.00    +0.133 C 
ENDROOT
BRANCH   1   2
ATOM      2  CB  VAL A   1      28.936  19.443  21.538  0.00  0.00    +0.023 C 
ATOM      3  CG2 VAL A   1      28.890  18.814  22.934  0.00  0.00    +0.002 C 
ATOM      4  CG1 VAL A   1      28.030  18.706  20.588  0.00  0.00    +0.002 C 
ENDBRANCH   1   2
BRANCH   1   5
ATOM      5  N   VAL A   1      28.295  21.528  20.287  0.00  0.00    -0.239 NA
ATOM      6  H   VAL A   1      29.057  21.513  19.579  0.00  0.00    +0.142 HD
ENDBRANCH   1   5
BRANCH   1   7
ATOM      7  C   VAL A   1      29.750  21.630  22.224  0.00  0.00    +0.224 C 
ATOM      8  O   VAL A   1      30.671  22.026  21.512  0.00  0.00    -0.287 OA
ENDBRANCH   1   7
TORSDOF 3
REMARK  Name = ../refined-set-2016/2fzg/2fzg_pocket.pdb
REMARK  233 active torsions:
REMARK  status: ('A' for Active; 'I' for Inactive)
REMARK    1  A    between atoms: _1  and  _3
REMARK    2  A    between atoms: _3  and  _4
REMARK    3  A    between atoms: _3  and  _6
REMARK    4  A    between atoms: _6  and  _7
REMARK    5  A    between atoms: _13  and  _15
REMARK    6  A    between atoms: _15  and  _16
REMARK    7  A    between atoms: _15  and  _18
REMARK    8  A    between atoms: _18  and  _19
REMARK    9  A    between atoms: _19  and  _20
REMARK   10  A    between atoms: _23  and  _25
REMARK   11  A    between atoms: _25  and  _26
REMARK   12  A    between atoms: _29  and  _31
REMARK   13  A    between atoms: _31  and  _32
REMARK   14  A    between atoms: _31  and  _34
REMARK   15  A    between atoms: _34  and  _35
REMARK   16  A    between atoms: _37  and  _39
REMARK   17  A    between atoms: _39  and  _40
REMARK   18  A    between atoms: _39  and  _42
REMARK   19  A    between atoms: _42  and  _43
REMARK   20  A    between atoms: _46  and  _48
REMARK   21  A    between atoms: _48  and  _49
REMARK   22  A    between atoms: _48  and  _51
REMARK   23  A    between atoms: _51  and  _52
REMARK   24  A    between atoms: _52  and  _53
REMARK   25  A    between atoms: _53  and  _54
REMARK   26  A    between atoms: _63  and  _65
REMARK   27  A    between atoms: _65  and  _66
REMARK   28  A    between atoms: _65  and  _68
REMARK   29  A    between atoms: _68  and  _69
REMARK   30  A    between atoms: _72  and  _74
REMARK   31  A    between atoms: _74  and  _75
REMARK   32  A    between atoms: _74  and  _77
REMARK   33  A    between atoms: _77  and  _78
REMARK   34  A    between atoms: _78  and  _79
REMARK   35  A    between atoms: _79  and  _80
REMARK   36  A    between atoms: _89  and  _91
REMARK   37  A    between atoms: _91  and  _92
REMARK   38  A    between atoms: _91  and  _94
REMARK   39  A    between atoms: _94  and  _95
REMARK   40  A    between atoms: _98  and  _100
REMARK   41  A    between atoms: _100  and  _101
REMARK   42  A    between atoms: _100  and  _103
REMARK   43  A    between atoms: _103  and  _104
REMARK   44  A    between atoms: _106  and  _108
REMARK   45  A    between atoms: _108  and  _109
REMARK   46  A    between atoms: _108  and  _111
REMARK   47  A    between atoms: _111  and  _112
REMARK   48  A    between atoms: _118  and  _120
REMARK   49  A    between atoms: _120  and  _121
REMARK   50  A    between atoms: _120  and  _123
REMARK   51  A    between atoms: _123  and  _124
REMARK   52  A    between atoms: _124  and  _125
REMARK   53  A    between atoms: _125  and  _126
REMARK   54  A    between atoms: _135  and  _137
REMARK   55  A    between atoms: _137  and  _138
REMARK   56  A    between atoms: _141  and  _143
REMARK   57  A    between atoms: _143  and  _144
REMARK   58  A    between atoms: _146  and  _148
REMARK   59  A    between atoms: _148  and  _149
REMARK   60  A    between atoms: _148  and  _151
REMARK   61  A    between atoms: _151  and  _152
REMARK   62  A    between atoms: _155  and  _157
REMARK   63  A    between atoms: _157  and  _158
REMARK   64  A    between atoms: _160  and  _162
REMARK   65  A    between atoms: _162  and  _163
REMARK   66  A    between atoms: _162  and  _165
REMARK   67  A    between atoms: _165  and  _166
REMARK   68  A    between atoms: _168  and  _170
REMARK   69  A    between atoms: _170  and  _171
REMARK   70  A    between atoms: _170  and  _173
REMARK   71  A    between atoms: _173  and  _174
REMARK   72  A    between atoms: _174  and  _175
REMARK   73  A    between atoms: _180  and  _182
REMARK   74  A    between atoms: _182  and  _183
REMARK   75  A    between atoms: _182  and  _185
REMARK   76  A    between atoms: _185  and  _186
REMARK   77  A    between atoms: _191  and  _193
REMARK   78  A    between atoms: _193  and  _194
REMARK   79  A    between atoms: _193  and  _196
REMARK   80  A    between atoms: _196  and  _197
REMARK   81  A    between atoms: _200  and  _202
REMARK   82  A    between atoms: _202  and  _203
REMARK   83  A    between atoms: _202  and  _205
REMARK   84  A    between atoms: _205  and  _206
REMARK   85  A    between atoms: _206  and  _207
REMARK   86  A    between atoms: _212  and  _214
REMARK   87  A    between atoms: _214  and  _215
REMARK   88  A    between atoms: _214  and  _217
REMARK   89  A    between atoms: _217  and  _218
REMARK   90  A    between atoms: _221  and  _223
REMARK   91  A    between atoms: _223  and  _224
REMARK   92  A    between atoms: _223  and  _226
REMARK   93  A    between atoms: _226  and  _227
REMARK   94  A    between atoms: _230  and  _232
REMARK   95  A    between atoms: _232  and  _233
REMARK   96  A    between atoms: _232  and  _235
REMARK   97  A    between atoms: _238  and  _240
REMARK   98  A    between atoms: _240  and  _241
REMARK   99  A    between atoms: _240  and  _243
REMARK  100  A    between atoms: _243  and  _244
REMARK  101  A    between atoms: _247  and  _249
REMARK  102  A    between atoms: _249  and  _250
REMARK  103  A    between atoms: _249  and  _252
REMARK  104  A    between atoms: _252  and  _253
REMARK  105  A    between atoms: _258  and  _259
REMARK  106  A    between atoms: _261  and  _263
REMARK  107  A    between atoms: _263  and  _264
REMARK  108  A    between atoms: _266  and  _268
REMARK  109  A    between atoms: _268  and  _269
REMARK  110  A    between atoms: _268  and  _271
REMARK  111  A    between atoms: _271  and  _272
REMARK  112  A    between atoms: _272  and  _273
REMARK  113  A    between atoms: _273  and  _274
REMARK  114  A    between atoms: _283  and  _285
REMARK  115  A    between atoms: _285  and  _286
REMARK  116  A    between atoms: _285  and  _288
REMARK  117  A    between atoms: _288  and  _289
REMARK  118  A    between atoms: _292  and  _294
REMARK  119  A    between atoms: _294  and  _295
REMARK  120  A    between atoms: _294  and  _297
REMARK  121  A    between atoms: _300  and  _302
REMARK  122  A    between atoms: _302  and  _303
REMARK  123  A    between atoms: _302  and  _305
REMARK  124  A    between atoms: _305  and  _306
REMARK  125  A    between atoms: _311  and  _313
REMARK  126  A    between atoms: _313  and  _314
REMARK  127  A    between atoms: _313  and  _316
REMARK  128  A    between atoms: _316  and  _317
REMARK  129  A    between atoms: _319  and  _321
REMARK  130  A    between atoms: _321  and  _322
REMARK  131  A    between atoms: _321  and  _324
REMARK  132  A    between atoms: _324  and  _325
REMARK  133  A    between atoms: _330  and  _331
REMARK  134  A    between atoms: _333  and  _335
REMARK  135  A    between atoms: _335  and  _336
REMARK  136  A    between atoms: _335  and  _338
REMARK  137  A    between atoms: _338  and  _339
REMARK  138  A    between atoms: _339  and  _340
REMARK  139  A    between atoms: _342  and  _344
REMARK  140  A    between atoms: _344  and  _345
REMARK  141  A    between atoms: _344  and  _347
REMARK  142  A    between atoms: _347  and  _348
REMARK  143  A    between atoms: _351  and  _353
REMARK  144  A    between atoms: _353  and  _354
REMARK  145  A    between atoms: _353  and  _356
REMARK  146  A    between atoms: _356  and  _357
REMARK  147  A    between atoms: _357  and  _358
REMARK  148  A    between atoms: _358  and  _359
REMARK  149  A    between atoms: _368  and  _370
REMARK  150  A    between atoms: _370  and  _371
REMARK  151  A    between atoms: _370  and  _373
REMARK  152  A    between atoms: _376  and  _378
REMARK  153  A    between atoms: _378  and  _379
REMARK  154  A    between atoms: _378  and  _381
REMARK  155  A    between atoms: _381  and  _382
REMARK  156  A    between atoms: _382  and  _383
REMARK  157  A    between atoms: _388  and  _390
REMARK  158  A    between atoms: _390  and  _391
REMARK  159  A    between atoms: _390  and  _393
REMARK  160  A    between atoms: _393  and  _394
REMARK  161  A    between atoms: _394  and  _395
REMARK  162  A    between atoms: _395  and  _396
REMARK  163  A    between atoms: _405  and  _407
REMARK  164  A    between atoms: _407  and  _408
REMARK  165  A    between atoms: _407  and  _410
REMARK  166  A    between atoms: _410  and  _411
REMARK  167  A    between atoms: _417  and  _418
REMARK  168  A    between atoms: _423  and  _425
REMARK  169  A    between atoms: _425  and  _426
REMARK  170  A    between atoms: _425  and  _428
REMARK  171  A    between atoms: _428  and  _429
REMARK  172  A    between atoms: _433  and  _434
REMARK  173  A    between atoms: _439  and  _441
REMARK  174  A    between atoms: _441  and  _442
REMARK  175  A    between atoms: _441  and  _444
REMARK  176  A    between atoms: _444  and  _445
REMARK  177  A    between atoms: _445  and  _446
REMARK  178  A    between atoms: _446  and  _447
REMARK  179  A    between atoms: _456  and  _458
REMARK  180  A    between atoms: _458  and  _459
REMARK  181  A    between atoms: _458  and  _461
REMARK  182  A    between atoms: _461  and  _462
REMARK  183  A    between atoms: _462  and  _463
REMARK  184  A    between atoms: _466  and  _468
REMARK  185  A    between atoms: _468  and  _469
REMARK  186  A    between atoms: _468  and  _471
REMARK  187  A    between atoms: _471  and  _472
REMARK  188  A    between atoms: _472  and  _473
REMARK  189  A    between atoms: _478  and  _480
REMARK  190  A    between atoms: _480  and  _481
REMARK  191  A    between atoms: _484  and  _486
REMARK  192  A    between atoms: _486  and  _487
REMARK  193  A    between atoms: _486  and  _489
REMARK  194  A    between atoms: _489  and  _490
REMARK  195  A    between atoms: _490  and  _491
REMARK  196  A    between atoms: _491  and  _492
REMARK  197  A    between atoms: _501  and  _503
REMARK  198  A    between atoms: _503  and  _504
REMARK  199  A    between atoms: _503  and  _506
REMARK  200  A    between atoms: _506  and  _507
REMARK  201  A    between atoms: _509  and  _511
REMARK  202  A    between atoms: _511  and  _512
REMARK  203  A    between atoms: _511  and  _514
REMARK  204  A    between atoms: _514  and  _515
REMARK  205  A    between atoms: _518  and  _520
REMARK  206  A    between atoms: _520  and  _521
REMARK  207  A    between atoms: _523  and  _525
REMARK  208  A    between atoms: _525  and  _526
REMARK  209  A    between atoms: _525  and  _528
REMARK  210  A    between atoms: _528  and  _529
REMARK  211  A    between atoms: _529  and  _530
REMARK  212  A    between atoms: _530  and  _531
REMARK  213  A    between atoms: _531  and  _532
REMARK  214  A    between atoms: _536  and  _538
REMARK  215  A    between atoms: _538  and  _539
REMARK  216  A    between atoms: _538  and  _541
REMARK  217  A    between atoms: _541  and  _542
REMARK  218  A    between atoms: _542  and  _543
REMARK  219  A    between atoms: _543  and  _544
REMARK  220  A    between atoms: _544  and  _545
REMARK  221  A    between atoms: _549  and  _551
REMARK  222  A    between atoms: _551  and  _552
REMARK  223  A    between atoms: _551  and  _554
REMARK  224  A    between atoms: _554  and  _555
REMARK  225  A    between atoms: _555  and  _556
REMARK  226  A    between atoms: _559  and  _561
REMARK  227  A    between atoms: _561  and  _562
REMARK  228  A    between atoms: _561  and  _564
REMARK  229  A    between atoms: _567  and  _569
REMARK  230  A    between atoms: _569  and  _570
REMARK  231  A    between atoms: _569  and  _572
REMARK  232  A    between atoms: _572  and  _573
REMARK  233  A    between atoms: _578  and  _579
REMARK                            x       y       z     vdW  Elec       q    Type
REMARK                         _______ _______ _______ _____ _____    ______ ____
ROOT
ATOM      1  CA  ASP A   1      31.317  25.807  25.760  0.00  0.00    +0.144 C 
ENDROOT
BRANCH   1   2
ATOM      2  N   ASP A   1      31.437  24.539  25.039  0.00  0.00    -0.239 NA
ATOM      3  H   ASP A   1      32.267  24.405  24.427  0.00  0.00    +0.142 HD
ENDBRANCH   1   2
BRANCH   1   4
ATOM      4  C   ASP A   1      30.633  26.785  24.793  0.00  0.00    +0.225 C 
ATOM      5  O   ASP A   1      31.255  27.558  24.069  0.00  0.00    -0.287 OA
ENDBRANCH   1   4
BRANCH   1   6
ATOM      6  CB  ASP A   1      32.718  26.316  26.163  0.00  0.00    +0.139 C 
BRANCH   6   7
ATOM      7  CG  ASP A   1      32.662  27.618  26.909  0.00  0.00    +0.367 C 
ATOM      8  OD2 ASP A   1      33.737  28.197  27.259  0.00  0.00    -0.246 OA
ATOM      9  OD1 ASP A   1      31.517  28.060  27.148  0.00  0.00    -0.246 OA
ENDBRANCH   6   7
ENDBRANCH   1   6
TORSDOF 4
REMARK  Name = ../refined-set-2016/2fzg/2fzg_pocket.pdb
REMARK  233 active torsions:
REMARK  status: ('A' for Active; 'I' for Inactive)
REMARK    1  A    between atoms: _1  and  _3
REMARK    2  A    between atoms: _3  and  _4
REMARK    3  A    between atoms: _3  and  _6
REMARK    4  A    between atoms: _6  and  _7
REMARK    5  A    between atoms: _13  and  _15
REMARK    6  A    between atoms: _15  and  _16
REMARK    7  A    between atoms: _15  and  _18
REMARK    8  A    between atoms: _18  and  _19
REMARK    9  A    between atoms: _19  and  _20
REMARK   10  A    between atoms: _23  and  _25
REMARK   11  A    between atoms: _25  and  _26
REMARK   12  A    between atoms: _29  and  _31
REMARK   13  A    between atoms: _31  and  _32
REMARK   14  A    between atoms: _31  and  _34
REMARK   15  A    between atoms: _34  and  _35
REMARK   16  A    between atoms: _37  and  _39
REMARK   17  A    between atoms: _39  and  _40
REMARK   18  A    between atoms: _39  and  _42
REMARK   19  A    between atoms: _42  and  _43
REMARK   20  A    between atoms: _46  and  _48
REMARK   21  A    between atoms: _48  and  _49
REMARK   22  A    between atoms: _48  and  _51
REMARK   23  A    between atoms: _51  and  _52
REMARK   24  A    between atoms: _52  and  _53
REMARK   25  A    between atoms: _53  and  _54
REMARK   26  A    between atoms: _63  and  _65
REMARK   27  A    between atoms: _65  and  _66
REMARK   28  A    between atoms: _65  and  _68
REMARK   29  A    between atoms: _68  and  _69
REMARK   30  A    between atoms: _72  and  _74
REMARK   31  A    between atoms: _74  and  _75
REMARK   32  A    between atoms: _74  and  _77
REMARK   33  A    between atoms: _77  and  _78
REMARK   34  A    between atoms: _78  and  _79
REMARK   35  A    between atoms: _79  and  _80
REMARK   36  A    between atoms: _89  and  _91
REMARK   37  A    between atoms: _91  and  _92
REMARK   38  A    between atoms: _91  and  _94
REMARK   39  A    between atoms: _94  and  _95
REMARK   40  A    between atoms: _98  and  _100
REMARK   41  A    between atoms: _100  and  _101
REMARK   42  A    between atoms: _100  and  _103
REMARK   43  A    between atoms: _103  and  _104
REMARK   44  A    between atoms: _106  and  _108
REMARK   45  A    between atoms: _108  and  _109
REMARK   46  A    between atoms: _108  and  _111
REMARK   47  A    between atoms: _111  and  _112
REMARK   48  A    between atoms: _118  and  _120
REMARK   49  A    between atoms: _120  and  _121
REMARK   50  A    between atoms: _120  and  _123
REMARK   51  A    between atoms: _123  and  _124
REMARK   52  A    between atoms: _124  and  _125
REMARK   53  A    between atoms: _125  and  _126
REMARK   54  A    between atoms: _135  and  _137
REMARK   55  A    between atoms: _137  and  _138
REMARK   56  A    between atoms: _141  and  _143
REMARK   57  A    between atoms: _143  and  _144
REMARK   58  A    between atoms: _146  and  _148
REMARK   59  A    between atoms: _148  and  _149
REMARK   60  A    between atoms: _148  and  _151
REMARK   61  A    between atoms: _151  and  _152
REMARK   62  A    between atoms: _155  and  _157
REMARK   63  A    between atoms: _157  and  _158
REMARK   64  A    between atoms: _160  and  _162
REMARK   65  A    between atoms: _162  and  _163
REMARK   66  A    between atoms: _162  and  _165
REMARK   67  A    between atoms: _165  and  _166
REMARK   68  A    between atoms: _168  and  _170
REMARK   69  A    between atoms: _170  and  _171
REMARK   70  A    between atoms: _170  and  _173
REMARK   71  A    between atoms: _173  and  _174
REMARK   72  A    between atoms: _174  and  _175
REMARK   73  A    between atoms: _180  and  _182
REMARK   74  A    between atoms: _182  and  _183
REMARK   75  A    between atoms: _182  and  _185
REMARK   76  A    between atoms: _185  and  _186
REMARK   77  A    between atoms: _191  and  _193
REMARK   78  A    between atoms: _193  and  _194
REMARK   79  A    between atoms: _193  and  _196
REMARK   80  A    between atoms: _196  and  _197
REMARK   81  A    between atoms: _200  and  _202
REMARK   82  A    between atoms: _202  and  _203
REMARK   83  A    between atoms: _202  and  _205
REMARK   84  A    between atoms: _205  and  _206
REMARK   85  A    between atoms: _206  and  _207
REMARK   86  A    between atoms: _212  and  _214
REMARK   87  A    between atoms: _214  and  _215
REMARK   88  A    between atoms: _214  and  _217
REMARK   89  A    between atoms: _217  and  _218
REMARK   90  A    between atoms: _221  and  _223
REMARK   91  A    between atoms: _223  and  _224
REMARK   92  A    between atoms: _223  and  _226
REMARK   93  A    between atoms: _226  and  _227
REMARK   94  A    between atoms: _230  and  _232
REMARK   95  A    between atoms: _232  and  _233
REMARK   96  A    between atoms: _232  and  _235
REMARK   97  A    between atoms: _238  and  _240
REMARK   98  A    between atoms: _240  and  _241
REMARK   99  A    between atoms: _240  and  _243
REMARK  100  A    between atoms: _243  and  _244
REMARK  101  A    between atoms: _247  and  _249
REMARK  102  A    between atoms: _249  and  _250
REMARK  103  A    between atoms: _249  and  _252
REMARK  104  A    between atoms: _252  and  _253
REMARK  105  A    between atoms: _258  and  _259
REMARK  106  A    between atoms: _261  and  _263
REMARK  107  A    between atoms: _263  and  _264
REMARK  108  A    between atoms: _266  and  _268
REMARK  109  A    between atoms: _268  and  _269
REMARK  110  A    between atoms: _268  and  _271
REMARK  111  A    between atoms: _271  and  _272
REMARK  112  A    between atoms: _272  and  _273
REMARK  113  A    between atoms: _273  and  _274
REMARK  114  A    between atoms: _283  and  _285
REMARK  115  A    between atoms: _285  and  _286
REMARK  116  A    between atoms: _285  and  _288
REMARK  117  A    between atoms: _288  and  _289
REMARK  118  A    between atoms: _292  and  _294
REMARK  119  A    between atoms: _294  and  _295
REMARK  120  A    between atoms: _294  and  _297
REMARK  121  A    between atoms: _300  and  _302
REMARK  122  A    between atoms: _302  and  _303
REMARK  123  A    between atoms: _302  and  _305
REMARK  124  A    between atoms: _305  and  _306
REMARK  125  A    between atoms: _311  and  _313
REMARK  126  A    between atoms: _313  and  _314
REMARK  127  A    between atoms: _313  and  _316
REMARK  128  A    between atoms: _316  and  _317
REMARK  129  A    between atoms: _319  and  _321
REMARK  130  A    between atoms: _321  and  _322
REMARK  131  A    between atoms: _321  and  _324
REMARK  132  A    between atoms: _324  and  _325
REMARK  133  A    between atoms: _330  and  _331
REMARK  134  A    between atoms: _333  and  _335
REMARK  135  A    between atoms: _335  and  _336
REMARK  136  A    between atoms: _335  and  _338
REMARK  137  A    between atoms: _338  and  _339
REMARK  138  A    between atoms: _339  and  _340
REMARK  139  A    between atoms: _342  and  _344
REMARK  140  A    between atoms: _344  and  _345
REMARK  141  A    between atoms: _344  and  _347
REMARK  142  A    between atoms: _347  and  _348
REMARK  143  A    between atoms: _351  and  _353
REMARK  144  A    between atoms: _353  and  _354
REMARK  145  A    between atoms: _353  and  _356
REMARK  146  A    between atoms: _356  and  _357
REMARK  147  A    between atoms: _357  and  _358
REMARK  148  A    between atoms: _358  and  _359
REMARK  149  A    between atoms: _368  and  _370
REMARK  150  A    between atoms: _370  and  _371
REMARK  151  A    between atoms: _370  and  _373
REMARK  152  A    between atoms: _376  and  _378
REMARK  153  A    between atoms: _378  and  _379
REMARK  154  A    between atoms: _378  and  _381
REMARK  155  A    between atoms: _381  and  _382
REMARK  156  A    between atoms: _382  and  _383
REMARK  157  A    between atoms: _388  and  _390
REMARK  158  A    between atoms: _390  and  _391
REMARK  159  A    between atoms: _390  and  _393
REMARK  160  A    between atoms: _393  and  _394
REMARK  161  A    between atoms: _394  and  _395
REMARK  162  A    between atoms: _395  and  _396
REMARK  163  A    between atoms: _405  and  _407
REMARK  164  A    between atoms: _407  and  _408
REMARK  165  A    between atoms: _407  and  _410
REMARK  166  A    between atoms: _410  and  _411
REMARK  167  A    between atoms: _417  and  _418
REMARK  168  A    between atoms: _423  and  _425
REMARK  169  A    between atoms: _425  and  _426
REMARK  170  A    between atoms: _425  and  _428
REMARK  171  A    between atoms: _428  and  _429
REMARK  172  A    between atoms: _433  and  _434
REMARK  173  A    between atoms: _439  and  _441
REMARK  174  A    between atoms: _441  and  _442
REMARK  175  A    between atoms: _441  and  _444
REMARK  176  A    between atoms: _444  and  _445
REMARK  177  A    between atoms: _445  and  _446
REMARK  178  A    between atoms: _446  and  _447
REMARK  179  A    between atoms: _456  and  _458
REMARK  180  A    between atoms: _458  and  _459
REMARK  181  A    between atoms: _458  and  _461
REMARK  182  A    between atoms: _461  and  _462
REMARK  183  A    between atoms: _462  and  _463
REMARK  184  A    between atoms: _466  and  _468
REMARK  185  A    between atoms: _468  and  _469
REMARK  186  A    between atoms: _468  and  _471
REMARK  187  A    between atoms: _471  and  _472
REMARK  188  A    between atoms: _472  and  _473
REMARK  189  A    between atoms: _478  and  _480
REMARK  190  A    between atoms: _480  and  _481
REMARK  191  A    between atoms: _484  and  _486
REMARK  192  A    between atoms: _486  and  _487
REMARK  193  A    between atoms: _486  and  _489
REMARK  194  A    between atoms: _489  and  _490
REMARK  195  A    between atoms: _490  and  _491
REMARK  196  A    between atoms: _491  and  _492
REMARK  197  A    between atoms: _501  and  _503
REMARK  198  A    between atoms: _503  and  _504
REMARK  199  A    between atoms: _503  and  _506
REMARK  200  A    between atoms: _506  and  _507
REMARK  201  A    between atoms: _509  and  _511
REMARK  202  A    between atoms: _511  and  _512
REMARK  203  A    between atoms: _511  and  _514
REMARK  204  A    between atoms: _514  and  _515
REMARK  205  A    between atoms: _518  and  _520
REMARK  206  A    between atoms: _520  and  _521
REMARK  207  A    between atoms: _523  and  _525
REMARK  208  A    between atoms: _525  and  _526
REMARK  209  A    between atoms: _525  and  _528
REMARK  210  A    between atoms: _528  and  _529
REMARK  211  A    between atoms: _529  and  _530
REMARK  212  A    between atoms: _530  and  _531
REMARK  213  A    between atoms: _531  and  _532
REMARK  214  A    between atoms: _536  and  _538
REMARK  215  A    between atoms: _538  and  _539
REMARK  216  A    between atoms: _538  and  _541
REMARK  217  A    between atoms: _541  and  _542
REMARK  218  A    between atoms: _542  and  _543
REMARK  219  A    between atoms: _543  and  _544
REMARK  220  A    between atoms: _544  and  _545
REMARK  221  A    between atoms: _549  and  _551
REMARK  222  A    between atoms: _551  and  _552
REMARK  223  A    between atoms: _551  and  _554
REMARK  224  A    between atoms: _554  and  _555
REMARK  225  A    between atoms: _555  and  _556
REMARK  226  A    between atoms: _559  and  _561
REMARK  227  A    between atoms: _561  and  _562
REMARK  228  A    between atoms: _561  and  _564
REMARK  229  A    between atoms: _567  and  _569
REMARK  230  A    between atoms: _569  and  _570
REMARK  231  A    between atoms: _569  and  _572
REMARK  232  A    between atoms: _572  and  _573
REMARK  233  A    between atoms: _578  and  _579
REMARK                            x       y       z     vdW  Elec       q    Type
REMARK                         _______ _______ _______ _____ _____    ______ ____
ROOT
ATOM      1  C   ARG A   3      33.194  32.331  18.528  0.00  0.00    +0.241 C 
ATOM      2  N   THR A   4      33.842  31.189  18.286  0.00  0.00    -0.295 N 
ATOM      3  H   THR A   4      34.490  30.810  19.006  0.00  0.00    +0.150 HD
ATOM      4  O   ARG A   3      32.404  32.829  17.731  0.00  0.00    -0.273 OA
ENDROOT
BRANCH   2   5
ATOM      5  CA  THR A   4      33.662  30.458  17.031  0.00  0.00    +0.176 C 
BRANCH   5   6
ATOM      6  C   THR A   4      32.231  30.013  16.822  0.00  0.00    +0.243 C 
ATOM      7  N   VAL A   5      31.590  29.492  17.867  0.00  0.00    -0.297 N 
ATOM      8  H   VAL A   5      32.077  29.439  18.784  0.00  0.00    +0.150 HD
ATOM      9  O   THR A   4      31.723  30.127  15.719  0.00  0.00    -0.273 OA
BRANCH   7  10
ATOM     10  CA  VAL A   5      30.209  28.989  17.758  0.00  0.00    +0.149 C 
BRANCH  10  11
ATOM     11  C   VAL A   5      29.189  30.093  17.649  0.00  0.00    +0.241 C 
ATOM     12  N   HIS A   6      29.468  31.207  18.294  0.00  0.00    -0.297 N 
ATOM     13  H   HIS A   6      30.329  31.286  18.872  0.00  0.00    +0.150 HD
ATOM     14  O   VAL A   5      28.158  29.952  17.001  0.00  0.00    -0.273 OA
BRANCH  12  15
ATOM     15  CA  HIS A   6      28.551  32.316  18.181  0.00  0.00    +0.155 C 
BRANCH  15  16
ATOM     16  C   HIS A   6      28.613  32.748  16.726  0.00  0.00    +0.241 C 
ATOM     17  N   SER A   7      29.845  32.932  16.270  0.00  0.00    -0.296 N 
ATOM     18  H   SER A   7      30.649  32.748  16.903  0.00  0.00    +0.150 HD
ATOM     19  O   HIS A   6      27.594  32.869  16.034  0.00  0.00    -0.273 OA
BRANCH  17  20
ATOM     20  CA  SER A   7      30.103  33.376  14.932  0.00  0.00    +0.166 C 
BRANCH  20  21
ATOM     21  C   SER A   7      29.537  32.463  13.854  0.00  0.00    +0.229 C 
ATOM     22  O   SER A   7      28.951  32.943  12.880  0.00  0.00    -0.286 OA
ENDBRANCH  20  21
BRANCH  20  23
ATOM     23  CB  SER A   7      31.605  33.548  14.749  0.00  0.00    +0.165 C 
BRANCH  23  24
ATOM     24  OG  SER A   7      31.855  34.181  13.509  0.00  0.00    -0.380 OA
ATOM     25  H   SER A   7      32.831  34.294  13.388  0.00  0.00    +0.211 HD
ENDBRANCH  23  24
ENDBRANCH  20  23
ENDBRANCH  17  20
ENDBRANCH  15  16
BRANCH  15  26
ATOM     26  CB  HIS A   6      29.014  33.445  19.075  0.00  0.00    +0.076 C 
BRANCH  26  27
ATOM     27  CG  HIS A   6      29.109  33.051  20.517  0.00  0.00    +0.082 A 
ATOM     28  ND1 HIS A   6      29.810  33.780  21.454  0.00  0.00    -0.227 NA
ATOM     29  CE1 HIS A   6      29.710  33.194  22.628  0.00  0.00    +0.199 A 
ATOM     30  NE2 HIS A   6      28.974  32.106  22.489  0.00  0.00    -0.221 NA
ATOM     31  CD2 HIS A   6      28.582  31.994  21.180  0.00  0.00    +0.115 A 
ENDBRANCH  26  27
ENDBRANCH  15  26
ENDBRANCH  12  15
ENDBRANCH  10  11
BRANCH  10  32
ATOM     32  CB  VAL A   5      29.817  28.081  18.952  0.00  0.00    +0.027 C 
ATOM     33  CG2 VAL A   5      30.198  28.726  20.275  0.00  0.00    +0.002 C 
ATOM     34  CG1 VAL A   5      30.505  26.742  18.808  0.00  0.00    +0.002 C 
ENDBRANCH  10  32
ENDBRANCH   7  10
ENDBRANCH   5   6
BRANCH   5  35
ATOM     35  CB  THR A   4      34.585  29.187  16.956  0.00  0.00    +0.137 C 
ATOM     36  CG2 THR A   4      34.803  28.703  15.519  0.00  0.00    +0.034 C 
BRANCH  35  37
ATOM     37  OG1 THR A   4      35.886  29.559  17.393  0.00  0.00    -0.382 OA
ATOM     38  HG1 THR A   4      36.484  28.771  17.353  0.00  0.00    +0.210 HD
ENDBRANCH  35  37
ENDBRANCH   5  35
ENDBRANCH   2   5
BRANCH   1  39
ATOM     39  CA  ARG A   3      33.455  33.013  19.867  0.00  0.00    +0.149 C 
BRANCH  39  42
ATOM     40  C   GLY A   2      32.923  31.141  21.364  0.00  0.00    +0.243 C 
ATOM     41  O   GLY A   2      31.772  31.037  20.925  0.00  0.00    -0.273 OA
ATOM     42  N   ARG A   3      33.788  32.050  20.920  0.00  0.00    -0.297 N 
ATOM     43  H   ARG A   3      34.740  32.078  21.338  0.00  0.00    +0.150 HD
BRANCH  40  44
ATOM     44  CA  GLY A   2      33.434  30.212  22.461  0.00  0.00    +0.176 C 
BRANCH  44  47
ATOM     45  C   TYR A   1      32.865  31.585  24.371  0.00  0.00    +0.239 C 
ATOM     46  O   TYR A   1      33.400  32.558  23.868  0.00  0.00    -0.274 OA
ATOM     47  N   GLY A   2      32.816  30.401  23.771  0.00  0.00    -0.296 N 
ATOM     48  H   GLY A   2      32.335  29.605  24.236  0.00  0.00    +0.150 HD
BRANCH  45  49
ATOM     49  CA  TYR A   1      32.239  31.720  25.736  0.00  0.00    +0.149 C 
BRANCH  49  50
ATOM     50  N   TYR A   1      31.123  30.868  26.032  0.00  0.00    -0.238 NA
ATOM     51  H   TYR A   1      31.268  29.874  26.299  0.00  0.00    +0.142 HD
ENDBRANCH  49  50
BRANCH  49  52
ATOM     52  CB  TYR A   1      33.282  31.514  26.819  0.00  0.00    +0.053 C 
BRANCH  52  53
ATOM     53  CG  TYR A   1      32.780  31.855  28.198  0.00  0.00    -0.020 A 
ATOM     54  CD2 TYR A   1      32.538  30.861  29.148  0.00  0.00    -0.001 A 
ATOM     55  CE2 TYR A   1      32.114  31.194  30.459  0.00  0.00    +0.036 A 
ATOM     56  CZ  TYR A   1      31.911  32.538  30.798  0.00  0.00    +0.134 A 
ATOM     57  CE1 TYR A   1      32.136  33.534  29.863  0.00  0.00    +0.036 A 
ATOM     58  CD1 TYR A   1      32.573  33.185  28.567  0.00  0.00    -0.001 A 
BRANCH  56  59
ATOM     59  OH  TYR A   1      31.432  32.889  32.045  0.00  0.00    -0.506 OA
ATOM     60  HH  TYR A   1      31.354  33.874  32.102  0.00  0.00    +0.292 HD
ENDBRANCH  56  59
ENDBRANCH  52  53
ENDBRANCH  49  52
ENDBRANCH  45  49
ENDBRANCH  44  47
ENDBRANCH  40  44
ENDBRANCH  39  42
BRANCH  39  61
ATOM     61  CB  ARG A   3      34.571  34.048  19.696  0.00  0.00    +0.033 C 
BRANCH  61  62
ATOM     62  CG  ARG A   3      35.923  33.436  19.360  0.00  0.00    +0.045 C 
BRANCH  62  63
ATOM     63  CD  ARG A   3      37.012  34.492  19.199  0.00  0.00    +0.174 C 
BRANCH  63  64
ATOM     64  NE  ARG A   3      38.329  33.867  19.067  0.00  0.00    -0.265 N 
ATOM     65  CZ  ARG A   3      39.483  34.538  19.125  0.00  0.00    +0.342 C 
ATOM     66  NH2 ARG A   3      39.504  35.855  19.311  0.00  0.00    -0.292 N 
ATOM     67 HH21 ARG A   3      38.612  36.380  19.414  0.00  0.00    +0.255 HD
ATOM     68 HH22 ARG A   3      40.412  36.360  19.353  0.00  0.00    +0.255 HD
ATOM     69  NH1 ARG A   3      40.631  33.898  19.003  0.00  0.00    -0.292 N 
ATOM     70 HH11 ARG A   3      41.527  34.424  19.049  0.00  0.00    +0.255 HD
ATOM     71 HH12 ARG A   3      40.639  32.868  18.861  0.00  0.00    +0.255 HD
ATOM     72  HE  ARG A   3      38.369  32.838  18.919  0.00  0.00    +0.259 HD
ENDBRANCH  63  64
ENDBRANCH  62  63
ENDBRANCH  61  62
ENDBRANCH  39  61
ENDBRANCH   1  39
TORSDOF 28
REMARK  Name = ../refined-set-2016/2fzg/2fzg_pocket.pdb
REMARK  233 active torsions:
REMARK  status: ('A' for Active; 'I' for Inactive)
REMARK    1  A    between atoms: _1  and  _3
REMARK    2  A    between atoms: _3  and  _4
REMARK    3  A    between atoms: _3  and  _6
REMARK    4  A    between atoms: _6  and  _7
REMARK    5  A    between atoms: _13  and  _15
REMARK    6  A    between atoms: _15  and  _16
REMARK    7  A    between atoms: _15  and  _18
REMARK    8  A    between atoms: _18  and  _19
REMARK    9  A    between atoms: _19  and  _20
REMARK   10  A    between atoms: _23  and  _25
REMARK   11  A    between atoms: _25  and  _26
REMARK   12  A    between atoms: _29  and  _31
REMARK   13  A    between atoms: _31  and  _32
REMARK   14  A    between atoms: _31  and  _34
REMARK   15  A    between atoms: _34  and  _35
REMARK   16  A    between atoms: _37  and  _39
REMARK   17  A    between atoms: _39  and  _40
REMARK   18  A    between atoms: _39  and  _42
REMARK   19  A    between atoms: _42  and  _43
REMARK   20  A    between atoms: _46  and  _48
REMARK   21  A    between atoms: _48  and  _49
REMARK   22  A    between atoms: _48  and  _51
REMARK   23  A    between atoms: _51  and  _52
REMARK   24  A    between atoms: _52  and  _53
REMARK   25  A    between atoms: _53  and  _54
REMARK   26  A    between atoms: _63  and  _65
REMARK   27  A    between atoms: _65  and  _66
REMARK   28  A    between atoms: _65  and  _68
REMARK   29  A    between atoms: _68  and  _69
REMARK   30  A    between atoms: _72  and  _74
REMARK   31  A    between atoms: _74  and  _75
REMARK   32  A    between atoms: _74  and  _77
REMARK   33  A    between atoms: _77  and  _78
REMARK   34  A    between atoms: _78  and  _79
REMARK   35  A    between atoms: _79  and  _80
REMARK   36  A    between atoms: _89  and  _91
REMARK   37  A    between atoms: _91  and  _92
REMARK   38  A    between atoms: _91  and  _94
REMARK   39  A    between atoms: _94  and  _95
REMARK   40  A    between atoms: _98  and  _100
REMARK   41  A    between atoms: _100  and  _101
REMARK   42  A    between atoms: _100  and  _103
REMARK   43  A    between atoms: _103  and  _104
REMARK   44  A    between atoms: _106  and  _108
REMARK   45  A    between atoms: _108  and  _109
REMARK   46  A    between atoms: _108  and  _111
REMARK   47  A    between atoms: _111  and  _112
REMARK   48  A    between atoms: _118  and  _120
REMARK   49  A    between atoms: _120  and  _121
REMARK   50  A    between atoms: _120  and  _123
REMARK   51  A    between atoms: _123  and  _124
REMARK   52  A    between atoms: _124  and  _125
REMARK   53  A    between atoms: _125  and  _126
REMARK   54  A    between atoms: _135  and  _137
REMARK   55  A    between atoms: _137  and  _138
REMARK   56  A    between atoms: _141  and  _143
REMARK   57  A    between atoms: _143  and  _144
REMARK   58  A    between atoms: _146  and  _148
REMARK   59  A    between atoms: _148  and  _149
REMARK   60  A    between atoms: _148  and  _151
REMARK   61  A    between atoms: _151  and  _152
REMARK   62  A    between atoms: _155  and  _157
REMARK   63  A    between atoms: _157  and  _158
REMARK   64  A    between atoms: _160  and  _162
REMARK   65  A    between atoms: _162  and  _163
REMARK   66  A    between atoms: _162  and  _165
REMARK   67  A    between atoms: _165  and  _166
REMARK   68  A    between atoms: _168  and  _170
REMARK   69  A    between atoms: _170  and  _171
REMARK   70  A    between atoms: _170  and  _173
REMARK   71  A    between atoms: _173  and  _174
REMARK   72  A    between atoms: _174  and  _175
REMARK   73  A    between atoms: _180  and  _182
REMARK   74  A    between atoms: _182  and  _183
REMARK   75  A    between atoms: _182  and  _185
REMARK   76  A    between atoms: _185  and  _186
REMARK   77  A    between atoms: _191  and  _193
REMARK   78  A    between atoms: _193  and  _194
REMARK   79  A    between atoms: _193  and  _196
REMARK   80  A    between atoms: _196  and  _197
REMARK   81  A    between atoms: _200  and  _202
REMARK   82  A    between atoms: _202  and  _203
REMARK   83  A    between atoms: _202  and  _205
REMARK   84  A    between atoms: _205  and  _206
REMARK   85  A    between atoms: _206  and  _207
REMARK   86  A    between atoms: _212  and  _214
REMARK   87  A    between atoms: _214  and  _215
REMARK   88  A    between atoms: _214  and  _217
REMARK   89  A    between atoms: _217  and  _218
REMARK   90  A    between atoms: _221  and  _223
REMARK   91  A    between atoms: _223  and  _224
REMARK   92  A    between atoms: _223  and  _226
REMARK   93  A    between atoms: _226  and  _227
REMARK   94  A    between atoms: _230  and  _232
REMARK   95  A    between atoms: _232  and  _233
REMARK   96  A    between atoms: _232  and  _235
REMARK   97  A    between atoms: _238  and  _240
REMARK   98  A    between atoms: _240  and  _241
REMARK   99  A    between atoms: _240  and  _243
REMARK  100  A    between atoms: _243  and  _244
REMARK  101  A    between atoms: _247  and  _249
REMARK  102  A    between atoms: _249  and  _250
REMARK  103  A    between atoms: _249  and  _252
REMARK  104  A    between atoms: _252  and  _253
REMARK  105  A    between atoms: _258  and  _259
REMARK  106  A    between atoms: _261  and  _263
REMARK  107  A    between atoms: _263  and  _264
REMARK  108  A    between atoms: _266  and  _268
REMARK  109  A    between atoms: _268  and  _269
REMARK  110  A    between atoms: _268  and  _271
REMARK  111  A    between atoms: _271  and  _272
REMARK  112  A    between atoms: _272  and  _273
REMARK  113  A    between atoms: _273  and  _274
REMARK  114  A    between atoms: _283  and  _285
REMARK  115  A    between atoms: _285  and  _286
REMARK  116  A    between atoms: _285  and  _288
REMARK  117  A    between atoms: _288  and  _289
REMARK  118  A    between atoms: _292  and  _294
REMARK  119  A    between atoms: _294  and  _295
REMARK  120  A    between atoms: _294  and  _297
REMARK  121  A    between atoms: _300  and  _302
REMARK  122  A    between atoms: _302  and  _303
REMARK  123  A    between atoms: _302  and  _305
REMARK  124  A    between atoms: _305  and  _306
REMARK  125  A    between atoms: _311  and  _313
REMARK  126  A    between atoms: _313  and  _314
REMARK  127  A    between atoms: _313  and  _316
REMARK  128  A    between atoms: _316  and  _317
REMARK  129  A    between atoms: _319  and  _321
REMARK  130  A    between atoms: _321  and  _322
REMARK  131  A    between atoms: _321  and  _324
REMARK  132  A    between atoms: _324  and  _325
REMARK  133  A    between atoms: _330  and  _331
REMARK  134  A    between atoms: _333  and  _335
REMARK  135  A    between atoms: _335  and  _336
REMARK  136  A    between atoms: _335  and  _338
REMARK  137  A    between atoms: _338  and  _339
REMARK  138  A    between atoms: _339  and  _340
REMARK  139  A    between atoms: _342  and  _344
REMARK  140  A    between atoms: _344  and  _345
REMARK  141  A    between atoms: _344  and  _347
REMARK  142  A    between atoms: _347  and  _348
REMARK  143  A    between atoms: _351  and  _353
REMARK  144  A    between atoms: _353  and  _354
REMARK  145  A    between atoms: _353  and  _356
REMARK  146  A    between atoms: _356  and  _357
REMARK  147  A    between atoms: _357  and  _358
REMARK  148  A    between atoms: _358  and  _359
REMARK  149  A    between atoms: _368  and  _370
REMARK  150  A    between atoms: _370  and  _371
REMARK  151  A    between atoms: _370  and  _373
REMARK  152  A    between atoms: _376  and  _378
REMARK  153  A    between atoms: _378  and  _379
REMARK  154  A    between atoms: _378  and  _381
REMARK  155  A    between atoms: _381  and  _382
REMARK  156  A    between atoms: _382  and  _383
REMARK  157  A    between atoms: _388  and  _390
REMARK  158  A    between atoms: _390  and  _391
REMARK  159  A    between atoms: _390  and  _393
REMARK  160  A    between atoms: _393  and  _394
REMARK  161  A    between atoms: _394  and  _395
REMARK  162  A    between atoms: _395  and  _396
REMARK  163  A    between atoms: _405  and  _407
REMARK  164  A    between atoms: _407  and  _408
REMARK  165  A    between atoms: _407  and  _410
REMARK  166  A    between atoms: _410  and  _411
REMARK  167  A    between atoms: _417  and  _418
REMARK  168  A    between atoms: _423  and  _425
REMARK  169  A    between atoms: _425  and  _426
REMARK  170  A    between atoms: _425  and  _428
REMARK  171  A    between atoms: _428  and  _429
REMARK  172  A    between atoms: _433  and  _434
REMARK  173  A    between atoms: _439  and  _441
REMARK  174  A    between atoms: _441  and  _442
REMARK  175  A    between atoms: _441  and  _444
REMARK  176  A    between atoms: _444  and  _445
REMARK  177  A    between atoms: _445  and  _446
REMARK  178  A    between atoms: _446  and  _447
REMARK  179  A    between atoms: _456  and  _458
REMARK  180  A    between atoms: _458  and  _459
REMARK  181  A    between atoms: _458  and  _461
REMARK  182  A    between atoms: _461  and  _462
REMARK  183  A    between atoms: _462  and  _463
REMARK  184  A    between atoms: _466  and  _468
REMARK  185  A    between atoms: _468  and  _469
REMARK  186  A    between atoms: _468  and  _471
REMARK  187  A    between atoms: _471  and  _472
REMARK  188  A    between atoms: _472  and  _473
REMARK  189  A    between atoms: _478  and  _480
REMARK  190  A    between atoms: _480  and  _481
REMARK  191  A    between atoms: _484  and  _486
REMARK  192  A    between atoms: _486  and  _487
REMARK  193  A    between atoms: _486  and  _489
REMARK  194  A    between atoms: _489  and  _490
REMARK  195  A    between atoms: _490  and  _491
REMARK  196  A    between atoms: _491  and  _492
REMARK  197  A    between atoms: _501  and  _503
REMARK  198  A    between atoms: _503  and  _504
REMARK  199  A    between atoms: _503  and  _506
REMARK  200  A    between atoms: _506  and  _507
REMARK  201  A    between atoms: _509  and  _511
REMARK  202  A    between atoms: _511  and  _512
REMARK  203  A    between atoms: _511  and  _514
REMARK  204  A    between atoms: _514  and  _515
REMARK  205  A    between atoms: _518  and  _520
REMARK  206  A    between atoms: _520  and  _521
REMARK  207  A    between atoms: _523  and  _525
REMARK  208  A    between atoms: _525  and  _526
REMARK  209  A    between atoms: _525  and  _528
REMARK  210  A    between atoms: _528  and  _529
REMARK  211  A    between atoms: _529  and  _530
REMARK  212  A    between atoms: _530  and  _531
REMARK  213  A    between atoms: _531  and  _532
REMARK  214  A    between atoms: _536  and  _538
REMARK  215  A    between atoms: _538  and  _539
REMARK  216  A    between atoms: _538  and  _541
REMARK  217  A    between atoms: _541  and  _542
REMARK  218  A    between atoms: _542  and  _543
REMARK  219  A    between atoms: _543  and  _544
REMARK  220  A    between atoms: _544  and  _545
REMARK  221  A    between atoms: _549  and  _551
REMARK  222  A    between atoms: _551  and  _552
REMARK  223  A    between atoms: _551  and  _554
REMARK  224  A    between atoms: _554  and  _555
REMARK  225  A    between atoms: _555  and  _556
REMARK  226  A    between atoms: _559  and  _561
REMARK  227  A    between atoms: _561  and  _562
REMARK  228  A    between atoms: _561  and  _564
REMARK  229  A    between atoms: _567  and  _569
REMARK  230  A    between atoms: _569  and  _570
REMARK  231  A    between atoms: _569  and  _572
REMARK  232  A    between atoms: _572  and  _573
REMARK  233  A    between atoms: _578  and  _579
REMARK                            x       y       z     vdW  Elec       q    Type
REMARK                         _______ _______ _______ _____ _____    ______ ____
ROOT
ATOM      1  CA  ARG A   4      36.952  23.161  23.568  0.00  0.00    +0.149 C 
ENDROOT
BRANCH   1   4
ATOM      2  C   THR A   3      35.026  22.666  22.193  0.00  0.00    +0.243 C 
ATOM      3  O   THR A   3      34.663  21.726  22.917  0.00  0.00    -0.273 OA
ATOM      4  N   ARG A   4      36.100  23.406  22.433  0.00  0.00    -0.297 N 
ATOM      5  H   ARG A   4      36.333  24.184  21.784  0.00  0.00    +0.150 HD
BRANCH   2   6
ATOM      6  CA  THR A   3      34.254  23.059  20.952  0.00  0.00    +0.176 C 
BRANCH   6   8
ATOM      7  C   MET A   2      33.371  21.539  19.275  0.00  0.00    +0.241 C 
ATOM      8  N   THR A   3      33.351  21.967  20.535  0.00  0.00    -0.295 N 
ATOM      9  H   THR A   3      32.702  21.534  21.223  0.00  0.00    +0.150 HD
ATOM     10  O   MET A   2      34.107  22.028  18.416  0.00  0.00    -0.273 OA
BRANCH   7  11
ATOM     11  CA  MET A   2      32.482  20.366  18.923  0.00  0.00    +0.149 C 
BRANCH  11  14
ATOM     12  C   TYR A   1      30.869  21.014  17.181  0.00  0.00    +0.239 C 
ATOM     13  O   TYR A   1      30.107  21.536  17.998  0.00  0.00    -0.274 OA
ATOM     14  N   MET A   2      32.021  20.436  17.531  0.00  0.00    -0.297 N 
ATOM     15  H   MET A   2      32.616  20.018  16.787  0.00  0.00    +0.150 HD
BRANCH  12  16
ATOM     16  CA  TYR A   1      30.511  20.990  15.688  0.00  0.00    +0.149 C 
BRANCH  16  17
ATOM     17  N   TYR A   1      29.484  19.993  15.429  0.00  0.00    -0.238 NA
ATOM     18  H   TYR A   1      28.491  20.272  15.562  0.00  0.00    +0.142 HD
ENDBRANCH  16  17
BRANCH  16  19
ATOM     19  CB  TYR A   1      29.996  22.364  15.267  0.00  0.00    +0.053 C 
BRANCH  19  20
ATOM     20  CG  TYR A   1      31.110  23.362  15.086  0.00  0.00    -0.020 A 
ATOM     21  CD2 TYR A   1      31.565  24.090  16.155  0.00  0.00    -0.001 A 
ATOM     22  CE2 TYR A   1      32.621  24.984  16.036  0.00  0.00    +0.036 A 
ATOM     23  CZ  TYR A   1      33.258  25.155  14.816  0.00  0.00    +0.134 A 
ATOM     24  CE1 TYR A   1      32.825  24.415  13.688  0.00  0.00    +0.036 A 
ATOM     25  CD1 TYR A   1      31.740  23.530  13.848  0.00  0.00    -0.001 A 
BRANCH  23  26
ATOM     26  OH  TYR A   1      34.294  26.076  14.755  0.00  0.00    -0.506 OA
ATOM     27  HH  TYR A   1      34.064  26.787  14.106  0.00  0.00    +0.292 HD
ENDBRANCH  23  26
ENDBRANCH  19  20
ENDBRANCH  16  19
ENDBRANCH  12  16
ENDBRANCH  11  14
BRANCH  11  28
ATOM     28  CB  MET A   2      33.345  19.121  19.164  0.00  0.00    +0.041 C 
BRANCH  28  29
ATOM     29  CG  MET A   2      32.850  17.801  18.671  0.00  0.00    +0.060 C 
BRANCH  29  30
ATOM     30  SD  MET A   2      31.845  16.943  19.875  0.00  0.00    -0.139 S 
ATOM     31  CE  MET A   2      32.916  16.609  21.163  0.00  0.00    +0.069 C 
ENDBRANCH  29  30
ENDBRANCH  28  29
ENDBRANCH  11  28
ENDBRANCH   7  11
ENDBRANCH   6   8
BRANCH   6  32
ATOM     32  CB  THR A   3      33.558  24.427  21.272  0.00  0.00    +0.137 C 
ATOM     33  CG2 THR A   3      32.908  24.990  20.048  0.00  0.00    +0.034 C 
BRANCH  32  34
ATOM     34  OG1 THR A   3      32.578  24.243  22.296  0.00  0.00    -0.382 OA
ATOM     35  HG1 THR A   3      31.898  23.593  21.987  0.00  0.00    +0.210 HD
ENDBRANCH  32  34
ENDBRANCH   6  32
ENDBRANCH   2   6
ENDBRANCH   1   4
BRANCH   1  36
ATOM     36  C   ARG A   4      36.384  23.882  24.748  0.00  0.00    +0.241 C 
ATOM     37  N   VAL A   5      36.123  23.147  25.816  0.00  0.00    -0.297 N 
ATOM     38  H   VAL A   5      36.279  22.119  25.785  0.00  0.00    +0.150 HD
ATOM     39  O   ARG A   4      36.187  25.085  24.696  0.00  0.00    -0.273 OA
BRANCH  37  40
ATOM     40  CA  VAL A   5      35.623  23.760  27.026  0.00  0.00    +0.149 C 
BRANCH  40  41
ATOM     41  C   VAL A   5      36.824  24.213  27.865  0.00  0.00    +0.241 C 
ATOM     42  O   VAL A   5      37.634  23.402  28.321  0.00  0.00    -0.273 OA
ATOM     43  N   GLN A   6      36.949  25.522  28.039  0.00  0.00    -0.298 N 
ATOM     44  H   GLN A   6      36.255  26.165  27.606  0.00  0.00    +0.150 HD
BRANCH  43  45
ATOM     45  CA  GLN A   6      38.041  26.072  28.826  0.00  0.00    +0.137 C 
BRANCH  45  46
ATOM     46  C   GLN A   6      37.966  25.520  30.249  0.00  0.00    +0.227 C 
ATOM     47  O   GLN A   6      36.944  25.643  30.915  0.00  0.00    -0.286 OA
ENDBRANCH  45  46
BRANCH  45  48
ATOM     48  CB  GLN A   6      37.965  27.603  28.817  0.00  0.00    +0.037 C 
BRANCH  48  49
ATOM     49  CG  GLN A   6      38.980  28.264  27.856  0.00  0.00    +0.087 C 
BRANCH  49  50
ATOM     50  CD  GLN A   6      40.441  28.061  28.295  0.00  0.00    +0.219 C 
ATOM     51  OE1 GLN A   6      41.139  29.023  28.648  0.00  0.00    -0.275 OA
ATOM     52  NE2 GLN A   6      40.903  26.809  28.270  0.00  0.00    -0.329 N 
ATOM     53 HE21 GLN A   6      41.884  26.611  28.554  0.00  0.00    +0.145 HD
ATOM     54 HE22 GLN A   6      40.282  26.032  27.967  0.00  0.00    +0.145 HD
ENDBRANCH  49  50
ENDBRANCH  48  49
ENDBRANCH  45  48
ENDBRANCH  43  45
ENDBRANCH  40  41
BRANCH  40  55
ATOM     55  CB  VAL A   5      34.753  22.776  27.811  0.00  0.00    +0.027 C 
ATOM     56  CG2 VAL A   5      34.808  23.099  29.305  0.00  0.00    +0.002 C 
ATOM     57  CG1 VAL A   5      35.224  21.376  27.548  0.00  0.00    +0.002 C 
ENDBRANCH  40  55
ENDBRANCH  37  40
ENDBRANCH   1  36
BRANCH   1  58
ATOM     58  CB  ARG A   4      38.337  23.717  23.304  0.00  0.00    +0.033 C 
BRANCH  58  59
ATOM     59  CG  ARG A   4      39.349  23.430  24.396  0.00  0.00    +0.045 C 
BRANCH  59  60
ATOM     60  CD  ARG A   4      40.519  24.373  24.231  0.00  0.00    +0.174 C 
BRANCH  60  61
ATOM     61  NE  ARG A   4      40.166  25.681  24.772  0.00  0.00    -0.265 N 
ATOM     62  HE  ARG A   4      39.379  25.724  25.451  0.00  0.00    +0.259 HD
ATOM     63  CZ  ARG A   4      40.773  26.821  24.464  0.00  0.00    +0.342 C 
ATOM     64  NH2 ARG A   4      40.385  27.951  25.058  0.00  0.00    -0.292 N 
ATOM     65 HH21 ARG A   4      39.614  27.934  25.755  0.00  0.00    +0.255 HD
ATOM     66 HH22 ARG A   4      40.854  28.849  24.824  0.00  0.00    +0.255 HD
ATOM     67  NH1 ARG A   4      41.786  26.829  23.591  0.00  0.00    -0.292 N 
ATOM     68 HH11 ARG A   4      42.259  27.724  23.352  0.00  0.00    +0.255 HD
ATOM     69 HH12 ARG A   4      42.100  25.941  23.151  0.00  0.00    +0.255 HD
ENDBRANCH  60  61
ENDBRANCH  59  60
ENDBRANCH  58  59
ENDBRANCH   1  58
TORSDOF 28
REMARK  Name = ../refined-set-2016/2fzg/2fzg_pocket.pdb
REMARK  233 active torsions:
REMARK  status: ('A' for Active; 'I' for Inactive)
REMARK    1  A    between atoms: _1  and  _3
REMARK    2  A    between atoms: _3  and  _4
REMARK    3  A    between atoms: _3  and  _6
REMARK    4  A    between atoms: _6  and  _7
REMARK    5  A    between atoms: _13  and  _15
REMARK    6  A    between atoms: _15  and  _16
REMARK    7  A    between atoms: _15  and  _18
REMARK    8  A    between atoms: _18  and  _19
REMARK    9  A    between atoms: _19  and  _20
REMARK   10  A    between atoms: _23  and  _25
REMARK   11  A    between atoms: _25  and  _26
REMARK   12  A    between atoms: _29  and  _31
REMARK   13  A    between atoms: _31  and  _32
REMARK   14  A    between atoms: _31  and  _34
REMARK   15  A    between atoms: _34  and  _35
REMARK   16  A    between atoms: _37  and  _39
REMARK   17  A    between atoms: _39  and  _40
REMARK   18  A    between atoms: _39  and  _42
REMARK   19  A    between atoms: _42  and  _43
REMARK   20  A    between atoms: _46  and  _48
REMARK   21  A    between atoms: _48  and  _49
REMARK   22  A    between atoms: _48  and  _51
REMARK   23  A    between atoms: _51  and  _52
REMARK   24  A    between atoms: _52  and  _53
REMARK   25  A    between atoms: _53  and  _54
REMARK   26  A    between atoms: _63  and  _65
REMARK   27  A    between atoms: _65  and  _66
REMARK   28  A    between atoms: _65  and  _68
REMARK   29  A    between atoms: _68  and  _69
REMARK   30  A    between atoms: _72  and  _74
REMARK   31  A    between atoms: _74  and  _75
REMARK   32  A    between atoms: _74  and  _77
REMARK   33  A    between atoms: _77  and  _78
REMARK   34  A    between atoms: _78  and  _79
REMARK   35  A    between atoms: _79  and  _80
REMARK   36  A    between atoms: _89  and  _91
REMARK   37  A    between atoms: _91  and  _92
REMARK   38  A    between atoms: _91  and  _94
REMARK   39  A    between atoms: _94  and  _95
REMARK   40  A    between atoms: _98  and  _100
REMARK   41  A    between atoms: _100  and  _101
REMARK   42  A    between atoms: _100  and  _103
REMARK   43  A    between atoms: _103  and  _104
REMARK   44  A    between atoms: _106  and  _108
REMARK   45  A    between atoms: _108  and  _109
REMARK   46  A    between atoms: _108  and  _111
REMARK   47  A    between atoms: _111  and  _112
REMARK   48  A    between atoms: _118  and  _120
REMARK   49  A    between atoms: _120  and  _121
REMARK   50  A    between atoms: _120  and  _123
REMARK   51  A    between atoms: _123  and  _124
REMARK   52  A    between atoms: _124  and  _125
REMARK   53  A    between atoms: _125  and  _126
REMARK   54  A    between atoms: _135  and  _137
REMARK   55  A    between atoms: _137  and  _138
REMARK   56  A    between atoms: _141  and  _143
REMARK   57  A    between atoms: _143  and  _144
REMARK   58  A    between atoms: _146  and  _148
REMARK   59  A    between atoms: _148  and  _149
REMARK   60  A    between atoms: _148  and  _151
REMARK   61  A    between atoms: _151  and  _152
REMARK   62  A    between atoms: _155  and  _157
REMARK   63  A    between atoms: _157  and  _158
REMARK   64  A    between atoms: _160  and  _162
REMARK   65  A    between atoms: _162  and  _163
REMARK   66  A    between atoms: _162  and  _165
REMARK   67  A    between atoms: _165  and  _166
REMARK   68  A    between atoms: _168  and  _170
REMARK   69  A    between atoms: _170  and  _171
REMARK   70  A    between atoms: _170  and  _173
REMARK   71  A    between atoms: _173  and  _174
REMARK   72  A    between atoms: _174  and  _175
REMARK   73  A    between atoms: _180  and  _182
REMARK   74  A    between atoms: _182  and  _183
REMARK   75  A    between atoms: _182  and  _185
REMARK   76  A    between atoms: _185  and  _186
REMARK   77  A    between atoms: _191  and  _193
REMARK   78  A    between atoms: _193  and  _194
REMARK   79  A    between atoms: _193  and  _196
REMARK   80  A    between atoms: _196  and  _197
REMARK   81  A    between atoms: _200  and  _202
REMARK   82  A    between atoms: _202  and  _203
REMARK   83  A    between atoms: _202  and  _205
REMARK   84  A    between atoms: _205  and  _206
REMARK   85  A    between atoms: _206  and  _207
REMARK   86  A    between atoms: _212  and  _214
REMARK   87  A    between atoms: _214  and  _215
REMARK   88  A    between atoms: _214  and  _217
REMARK   89  A    between atoms: _217  and  _218
REMARK   90  A    between atoms: _221  and  _223
REMARK   91  A    between atoms: _223  and  _224
REMARK   92  A    between atoms: _223  and  _226
REMARK   93  A    between atoms: _226  and  _227
REMARK   94  A    between atoms: _230  and  _232
REMARK   95  A    between atoms: _232  and  _233
REMARK   96  A    between atoms: _232  and  _235
REMARK   97  A    between atoms: _238  and  _240
REMARK   98  A    between atoms: _240  and  _241
REMARK   99  A    between atoms: _240  and  _243
REMARK  100  A    between atoms: _243  and  _244
REMARK  101  A    between atoms: _247  and  _249
REMARK  102  A    between atoms: _249  and  _250
REMARK  103  A    between atoms: _249  and  _252
REMARK  104  A    between atoms: _252  and  _253
REMARK  105  A    between atoms: _258  and  _259
REMARK  106  A    between atoms: _261  and  _263
REMARK  107  A    between atoms: _263  and  _264
REMARK  108  A    between atoms: _266  and  _268
REMARK  109  A    between atoms: _268  and  _269
REMARK  110  A    between atoms: _268  and  _271
REMARK  111  A    between atoms: _271  and  _272
REMARK  112  A    between atoms: _272  and  _273
REMARK  113  A    between atoms: _273  and  _274
REMARK  114  A    between atoms: _283  and  _285
REMARK  115  A    between atoms: _285  and  _286
REMARK  116  A    between atoms: _285  and  _288
REMARK  117  A    between atoms: _288  and  _289
REMARK  118  A    between atoms: _292  and  _294
REMARK  119  A    between atoms: _294  and  _295
REMARK  120  A    between atoms: _294  and  _297
REMARK  121  A    between atoms: _300  and  _302
REMARK  122  A    between atoms: _302  and  _303
REMARK  123  A    between atoms: _302  and  _305
REMARK  124  A    between atoms: _305  and  _306
REMARK  125  A    between atoms: _311  and  _313
REMARK  126  A    between atoms: _313  and  _314
REMARK  127  A    between atoms: _313  and  _316
REMARK  128  A    between atoms: _316  and  _317
REMARK  129  A    between atoms: _319  and  _321
REMARK  130  A    between atoms: _321  and  _322
REMARK  131  A    between atoms: _321  and  _324
REMARK  132  A    between atoms: _324  and  _325
REMARK  133  A    between atoms: _330  and  _331
REMARK  134  A    between atoms: _333  and  _335
REMARK  135  A    between atoms: _335  and  _336
REMARK  136  A    between atoms: _335  and  _338
REMARK  137  A    between atoms: _338  and  _339
REMARK  138  A    between atoms: _339  and  _340
REMARK  139  A    between atoms: _342  and  _344
REMARK  140  A    between atoms: _344  and  _345
REMARK  141  A    between atoms: _344  and  _347
REMARK  142  A    between atoms: _347  and  _348
REMARK  143  A    between atoms: _351  and  _353
REMARK  144  A    between atoms: _353  and  _354
REMARK  145  A    between atoms: _353  and  _356
REMARK  146  A    between atoms: _356  and  _357
REMARK  147  A    between atoms: _357  and  _358
REMARK  148  A    between atoms: _358  and  _359
REMARK  149  A    between atoms: _368  and  _370
REMARK  150  A    between atoms: _370  and  _371
REMARK  151  A    between atoms: _370  and  _373
REMARK  152  A    between atoms: _376  and  _378
REMARK  153  A    between atoms: _378  and  _379
REMARK  154  A    between atoms: _378  and  _381
REMARK  155  A    between atoms: _381  and  _382
REMARK  156  A    between atoms: _382  and  _383
REMARK  157  A    between atoms: _388  and  _390
REMARK  158  A    between atoms: _390  and  _391
REMARK  159  A    between atoms: _390  and  _393
REMARK  160  A    between atoms: _393  and  _394
REMARK  161  A    between atoms: _394  and  _395
REMARK  162  A    between atoms: _395  and  _396
REMARK  163  A    between atoms: _405  and  _407
REMARK  164  A    between atoms: _407  and  _408
REMARK  165  A    between atoms: _407  and  _410
REMARK  166  A    between atoms: _410  and  _411
REMARK  167  A    between atoms: _417  and  _418
REMARK  168  A    between atoms: _423  and  _425
REMARK  169  A    between atoms: _425  and  _426
REMARK  170  A    between atoms: _425  and  _428
REMARK  171  A    between atoms: _428  and  _429
REMARK  172  A    between atoms: _433  and  _434
REMARK  173  A    between atoms: _439  and  _441
REMARK  174  A    between atoms: _441  and  _442
REMARK  175  A    between atoms: _441  and  _444
REMARK  176  A    between atoms: _444  and  _445
REMARK  177  A    between atoms: _445  and  _446
REMARK  178  A    between atoms: _446  and  _447
REMARK  179  A    between atoms: _456  and  _458
REMARK  180  A    between atoms: _458  and  _459
REMARK  181  A    between atoms: _458  and  _461
REMARK  182  A    between atoms: _461  and  _462
REMARK  183  A    between atoms: _462  and  _463
REMARK  184  A    between atoms: _466  and  _468
REMARK  185  A    between atoms: _468  and  _469
REMARK  186  A    between atoms: _468  and  _471
REMARK  187  A    between atoms: _471  and  _472
REMARK  188  A    between atoms: _472  and  _473
REMARK  189  A    between atoms: _478  and  _480
REMARK  190  A    between atoms: _480  and  _481
REMARK  191  A    between atoms: _484  and  _486
REMARK  192  A    between atoms: _486  and  _487
REMARK  193  A    between atoms: _486  and  _489
REMARK  194  A    between atoms: _489  and  _490
REMARK  195  A    between atoms: _490  and  _491
REMARK  196  A    between atoms: _491  and  _492
REMARK  197  A    between atoms: _501  and  _503
REMARK  198  A    between atoms: _503  and  _504
REMARK  199  A    between atoms: _503  and  _506
REMARK  200  A    between atoms: _506  and  _507
REMARK  201  A    between atoms: _509  and  _511
REMARK  202  A    between atoms: _511  and  _512
REMARK  203  A    between atoms: _511  and  _514
REMARK  204  A    between atoms: _514  and  _515
REMARK  205  A    between atoms: _518  and  _520
REMARK  206  A    between atoms: _520  and  _521
REMARK  207  A    between atoms: _523  and  _525
REMARK  208  A    between atoms: _525  and  _526
REMARK  209  A    between atoms: _525  and  _528
REMARK  210  A    between atoms: _528  and  _529
REMARK  211  A    between atoms: _529  and  _530
REMARK  212  A    between atoms: _530  and  _531
REMARK  213  A    between atoms: _531  and  _532
REMARK  214  A    between atoms: _536  and  _538
REMARK  215  A    between atoms: _538  and  _539
REMARK  216  A    between atoms: _538  and  _541
REMARK  217  A    between atoms: _541  and  _542
REMARK  218  A    between atoms: _542  and  _543
REMARK  219  A    between atoms: _543  and  _544
REMARK  220  A    between atoms: _544  and  _545
REMARK  221  A    between atoms: _549  and  _551
REMARK  222  A    between atoms: _551  and  _552
REMARK  223  A    between atoms: _551  and  _554
REMARK  224  A    between atoms: _554  and  _555
REMARK  225  A    between atoms: _555  and  _556
REMARK  226  A    between atoms: _559  and  _561
REMARK  227  A    between atoms: _561  and  _562
REMARK  228  A    between atoms: _561  and  _564
REMARK  229  A    between atoms: _567  and  _569
REMARK  230  A    between atoms: _569  and  _570
REMARK  231  A    between atoms: _569  and  _572
REMARK  232  A    between atoms: _572  and  _573
REMARK  233  A    between atoms: _578  and  _579
REMARK                            x       y       z     vdW  Elec       q    Type
REMARK                         _______ _______ _______ _____ _____    ______ ____
ROOT
ATOM      1  NE  ARG A   1      36.296  31.012  29.963  0.00  0.00    -0.265 N 
ATOM      2  CZ  ARG A   1      36.317  32.330  29.852  0.00  0.00    +0.342 C 
ATOM      3  NH2 ARG A   1      35.793  33.070  30.813  0.00  0.00    -0.292 N 
ATOM      4 HH21 ARG A   1      35.369  32.615  31.647  0.00  0.00    +0.255 HD
ATOM      5 HH22 ARG A   1      35.804  34.107  30.736  0.00  0.00    +0.255 HD
ATOM      6  NH1 ARG A   1      36.879  32.901  28.801  0.00  0.00    -0.292 N 
ATOM      7 HH11 ARG A   1      36.893  33.938  28.718  0.00  0.00    +0.255 HD
ATOM      8 HH12 ARG A   1      37.307  32.314  28.057  0.00  0.00    +0.255 HD
ATOM      9  HE  ARG A   1      36.704  30.447  29.191  0.00  0.00    +0.259 HD
ENDROOT
BRANCH   1  10
ATOM     10  CD  ARG A   1      35.734  30.312  31.105  0.00  0.00    +0.174 C 
BRANCH  10  11
ATOM     11  CG  ARG A   1      35.874  28.825  30.920  0.00  0.00    +0.045 C 
BRANCH  11  12
ATOM     12  CB  ARG A   1      35.421  28.113  32.166  0.00  0.00    +0.029 C 
BRANCH  12  13
ATOM     13  CA  ARG A   1      36.226  28.453  33.426  0.00  0.00    +0.133 C 
BRANCH  13  14
ATOM     14  N   ARG A   1      37.588  27.962  33.299  0.00  0.00    -0.239 NA
ATOM     15  H   ARG A   1      37.915  27.573  32.391  0.00  0.00    +0.142 HD
ENDBRANCH  13  14
BRANCH  13  16
ATOM     16  C   ARG A   1      35.550  27.774  34.619  0.00  0.00    +0.224 C 
ATOM     17  O   ARG A   1      34.874  28.423  35.427  0.00  0.00    -0.287 OA
ENDBRANCH  13  16
ENDBRANCH  12  13
ENDBRANCH  11  12
ENDBRANCH  10  11
ENDBRANCH   1  10
TORSDOF 6
REMARK  Name = ../refined-set-2016/2fzg/2fzg_pocket.pdb
REMARK  233 active torsions:
REMARK  status: ('A' for Active; 'I' for Inactive)
REMARK    1  A    between atoms: _1  and  _3
REMARK    2  A    between atoms: _3  and  _4
REMARK    3  A    between atoms: _3  and  _6
REMARK    4  A    between atoms: _6  and  _7
REMARK    5  A    between atoms: _13  and  _15
REMARK    6  A    between atoms: _15  and  _16
REMARK    7  A    between atoms: _15  and  _18
REMARK    8  A    between atoms: _18  and  _19
REMARK    9  A    between atoms: _19  and  _20
REMARK   10  A    between atoms: _23  and  _25
REMARK   11  A    between atoms: _25  and  _26
REMARK   12  A    between atoms: _29  and  _31
REMARK   13  A    between atoms: _31  and  _32
REMARK   14  A    between atoms: _31  and  _34
REMARK   15  A    between atoms: _34  and  _35
REMARK   16  A    between atoms: _37  and  _39
REMARK   17  A    between atoms: _39  and  _40
REMARK   18  A    between atoms: _39  and  _42
REMARK   19  A    between atoms: _42  and  _43
REMARK   20  A    between atoms: _46  and  _48
REMARK   21  A    between atoms: _48  and  _49
REMARK   22  A    between atoms: _48  and  _51
REMARK   23  A    between atoms: _51  and  _52
REMARK   24  A    between atoms: _52  and  _53
REMARK   25  A    between atoms: _53  and  _54
REMARK   26  A    between atoms: _63  and  _65
REMARK   27  A    between atoms: _65  and  _66
REMARK   28  A    between atoms: _65  and  _68
REMARK   29  A    between atoms: _68  and  _69
REMARK   30  A    between atoms: _72  and  _74
REMARK   31  A    between atoms: _74  and  _75
REMARK   32  A    between atoms: _74  and  _77
REMARK   33  A    between atoms: _77  and  _78
REMARK   34  A    between atoms: _78  and  _79
REMARK   35  A    between atoms: _79  and  _80
REMARK   36  A    between atoms: _89  and  _91
REMARK   37  A    between atoms: _91  and  _92
REMARK   38  A    between atoms: _91  and  _94
REMARK   39  A    between atoms: _94  and  _95
REMARK   40  A    between atoms: _98  and  _100
REMARK   41  A    between atoms: _100  and  _101
REMARK   42  A    between atoms: _100  and  _103
REMARK   43  A    between atoms: _103  and  _104
REMARK   44  A    between atoms: _106  and  _108
REMARK   45  A    between atoms: _108  and  _109
REMARK   46  A    between atoms: _108  and  _111
REMARK   47  A    between atoms: _111  and  _112
REMARK   48  A    between atoms: _118  and  _120
REMARK   49  A    between atoms: _120  and  _121
REMARK   50  A    between atoms: _120  and  _123
REMARK   51  A    between atoms: _123  and  _124
REMARK   52  A    between atoms: _124  and  _125
REMARK   53  A    between atoms: _125  and  _126
REMARK   54  A    between atoms: _135  and  _137
REMARK   55  A    between atoms: _137  and  _138
REMARK   56  A    between atoms: _141  and  _143
REMARK   57  A    between atoms: _143  and  _144
REMARK   58  A    between atoms: _146  and  _148
REMARK   59  A    between atoms: _148  and  _149
REMARK   60  A    between atoms: _148  and  _151
REMARK   61  A    between atoms: _151  and  _152
REMARK   62  A    between atoms: _155  and  _157
REMARK   63  A    between atoms: _157  and  _158
REMARK   64  A    between atoms: _160  and  _162
REMARK   65  A    between atoms: _162  and  _163
REMARK   66  A    between atoms: _162  and  _165
REMARK   67  A    between atoms: _165  and  _166
REMARK   68  A    between atoms: _168  and  _170
REMARK   69  A    between atoms: _170  and  _171
REMARK   70  A    between atoms: _170  and  _173
REMARK   71  A    between atoms: _173  and  _174
REMARK   72  A    between atoms: _174  and  _175
REMARK   73  A    between atoms: _180  and  _182
REMARK   74  A    between atoms: _182  and  _183
REMARK   75  A    between atoms: _182  and  _185
REMARK   76  A    between atoms: _185  and  _186
REMARK   77  A    between atoms: _191  and  _193
REMARK   78  A    between atoms: _193  and  _194
REMARK   79  A    between atoms: _193  and  _196
REMARK   80  A    between atoms: _196  and  _197
REMARK   81  A    between atoms: _200  and  _202
REMARK   82  A    between atoms: _202  and  _203
REMARK   83  A    between atoms: _202  and  _205
REMARK   84  A    between atoms: _205  and  _206
REMARK   85  A    between atoms: _206  and  _207
REMARK   86  A    between atoms: _212  and  _214
REMARK   87  A    between atoms: _214  and  _215
REMARK   88  A    between atoms: _214  and  _217
REMARK   89  A    between atoms: _217  and  _218
REMARK   90  A    between atoms: _221  and  _223
REMARK   91  A    between atoms: _223  and  _224
REMARK   92  A    between atoms: _223  and  _226
REMARK   93  A    between atoms: _226  and  _227
REMARK   94  A    between atoms: _230  and  _232
REMARK   95  A    between atoms: _232  and  _233
REMARK   96  A    between atoms: _232  and  _235
REMARK   97  A    between atoms: _238  and  _240
REMARK   98  A    between atoms: _240  and  _241
REMARK   99  A    between atoms: _240  and  _243
REMARK  100  A    between atoms: _243  and  _244
REMARK  101  A    between atoms: _247  and  _249
REMARK  102  A    between atoms: _249  and  _250
REMARK  103  A    between atoms: _249  and  _252
REMARK  104  A    between atoms: _252  and  _253
REMARK  105  A    between atoms: _258  and  _259
REMARK  106  A    between atoms: _261  and  _263
REMARK  107  A    between atoms: _263  and  _264
REMARK  108  A    between atoms: _266  and  _268
REMARK  109  A    between atoms: _268  and  _269
REMARK  110  A    between atoms: _268  and  _271
REMARK  111  A    between atoms: _271  and  _272
REMARK  112  A    between atoms: _272  and  _273
REMARK  113  A    between atoms: _273  and  _274
REMARK  114  A    between atoms: _283  and  _285
REMARK  115  A    between atoms: _285  and  _286
REMARK  116  A    between atoms: _285  and  _288
REMARK  117  A    between atoms: _288  and  _289
REMARK  118  A    between atoms: _292  and  _294
REMARK  119  A    between atoms: _294  and  _295
REMARK  120  A    between atoms: _294  and  _297
REMARK  121  A    between atoms: _300  and  _302
REMARK  122  A    between atoms: _302  and  _303
REMARK  123  A    between atoms: _302  and  _305
REMARK  124  A    between atoms: _305  and  _306
REMARK  125  A    between atoms: _311  and  _313
REMARK  126  A    between atoms: _313  and  _314
REMARK  127  A    between atoms: _313  and  _316
REMARK  128  A    between atoms: _316  and  _317
REMARK  129  A    between atoms: _319  and  _321
REMARK  130  A    between atoms: _321  and  _322
REMARK  131  A    between atoms: _321  and  _324
REMARK  132  A    between atoms: _324  and  _325
REMARK  133  A    between atoms: _330  and  _331
REMARK  134  A    between atoms: _333  and  _335
REMARK  135  A    between atoms: _335  and  _336
REMARK  136  A    between atoms: _335  and  _338
REMARK  137  A    between atoms: _338  and  _339
REMARK  138  A    between atoms: _339  and  _340
REMARK  139  A    between atoms: _342  and  _344
REMARK  140  A    between atoms: _344  and  _345
REMARK  141  A    between atoms: _344  and  _347
REMARK  142  A    between atoms: _347  and  _348
REMARK  143  A    between atoms: _351  and  _353
REMARK  144  A    between atoms: _353  and  _354
REMARK  145  A    between atoms: _353  and  _356
REMARK  146  A    between atoms: _356  and  _357
REMARK  147  A    between atoms: _357  and  _358
REMARK  148  A    between atoms: _358  and  _359
REMARK  149  A    between atoms: _368  and  _370
REMARK  150  A    between atoms: _370  and  _371
REMARK  151  A    between atoms: _370  and  _373
REMARK  152  A    between atoms: _376  and  _378
REMARK  153  A    between atoms: _378  and  _379
REMARK  154  A    between atoms: _378  and  _381
REMARK  155  A    between atoms: _381  and  _382
REMARK  156  A    between atoms: _382  and  _383
REMARK  157  A    between atoms: _388  and  _390
REMARK  158  A    between atoms: _390  and  _391
REMARK  159  A    between atoms: _390  and  _393
REMARK  160  A    between atoms: _393  and  _394
REMARK  161  A    between atoms: _394  and  _395
REMARK  162  A    between atoms: _395  and  _396
REMARK  163  A    between atoms: _405  and  _407
REMARK  164  A    between atoms: _407  and  _408
REMARK  165  A    between atoms: _407  and  _410
REMARK  166  A    between atoms: _410  and  _411
REMARK  167  A    between atoms: _417  and  _418
REMARK  168  A    between atoms: _423  and  _425
REMARK  169  A    between atoms: _425  and  _426
REMARK  170  A    between atoms: _425  and  _428
REMARK  171  A    between atoms: _428  and  _429
REMARK  172  A    between atoms: _433  and  _434
REMARK  173  A    between atoms: _439  and  _441
REMARK  174  A    between atoms: _441  and  _442
REMARK  175  A    between atoms: _441  and  _444
REMARK  176  A    between atoms: _444  and  _445
REMARK  177  A    between atoms: _445  and  _446
REMARK  178  A    between atoms: _446  and  _447
REMARK  179  A    between atoms: _456  and  _458
REMARK  180  A    between atoms: _458  and  _459
REMARK  181  A    between atoms: _458  and  _461
REMARK  182  A    between atoms: _461  and  _462
REMARK  183  A    between atoms: _462  and  _463
REMARK  184  A    between atoms: _466  and  _468
REMARK  185  A    between atoms: _468  and  _469
REMARK  186  A    between atoms: _468  and  _471
REMARK  187  A    between atoms: _471  and  _472
REMARK  188  A    between atoms: _472  and  _473
REMARK  189  A    between atoms: _478  and  _480
REMARK  190  A    between atoms: _480  and  _481
REMARK  191  A    between atoms: _484  and  _486
REMARK  192  A    between atoms: _486  and  _487
REMARK  193  A    between atoms: _486  and  _489
REMARK  194  A    between atoms: _489  and  _490
REMARK  195  A    between atoms: _490  and  _491
REMARK  196  A    between atoms: _491  and  _492
REMARK  197  A    between atoms: _501  and  _503
REMARK  198  A    between atoms: _503  and  _504
REMARK  199  A    between atoms: _503  and  _506
REMARK  200  A    between atoms: _506  and  _507
REMARK  201  A    between atoms: _509  and  _511
REMARK  202  A    between atoms: _511  and  _512
REMARK  203  A    between atoms: _511  and  _514
REMARK  204  A    between atoms: _514  and  _515
REMARK  205  A    between atoms: _518  and  _520
REMARK  206  A    between atoms: _520  and  _521
REMARK  207  A    between atoms: _523  and  _525
REMARK  208  A    between atoms: _525  and  _526
REMARK  209  A    between atoms: _525  and  _528
REMARK  210  A    between atoms: _528  and  _529
REMARK  211  A    between atoms: _529  and  _530
REMARK  212  A    between atoms: _530  and  _531
REMARK  213  A    between atoms: _531  and  _532
REMARK  214  A    between atoms: _536  and  _538
REMARK  215  A    between atoms: _538  and  _539
REMARK  216  A    between atoms: _538  and  _541
REMARK  217  A    between atoms: _541  and  _542
REMARK  218  A    between atoms: _542  and  _543
REMARK  219  A    between atoms: _543  and  _544
REMARK  220  A    between atoms: _544  and  _545
REMARK  221  A    between atoms: _549  and  _551
REMARK  222  A    between atoms: _551  and  _552
REMARK  223  A    between atoms: _551  and  _554
REMARK  224  A    between atoms: _554  and  _555
REMARK  225  A    between atoms: _555  and  _556
REMARK  226  A    between atoms: _559  and  _561
REMARK  227  A    between atoms: _561  and  _562
REMARK  228  A    between atoms: _561  and  _564
REMARK  229  A    between atoms: _567  and  _569
REMARK  230  A    between atoms: _569  and  _570
REMARK  231  A    between atoms: _569  and  _572
REMARK  232  A    between atoms: _572  and  _573
REMARK  233  A    between atoms: _578  and  _579
REMARK                            x       y       z     vdW  Elec       q    Type
REMARK                         _______ _______ _______ _____ _____    ______ ____
ROOT
ATOM      1  C   LEU A   3      41.388  23.583  18.773  0.00  0.00    +0.244 C 
ATOM      2  N   PRO A   4      42.117  23.177  19.815  0.00  0.00    -0.272 N 
ATOM      3  CD  PRO A   4      42.708  24.066  20.832  0.00  0.00    +0.094 C 
ATOM      4  CG  PRO A   4      43.414  23.091  21.778  0.00  0.00    +0.024 C 
ATOM      5  CB  PRO A   4      43.792  21.919  20.845  0.00  0.00    +0.031 C 
ATOM      6  CA  PRO A   4      42.538  21.781  19.997  0.00  0.00    +0.152 C 
ATOM      7  O   LEU A   3      41.036  24.775  18.629  0.00  0.00    -0.273 OA
ENDROOT
BRANCH   6   8
ATOM      8  C   PRO A   4      41.492  20.892  20.645  0.00  0.00    +0.241 C 
ATOM      9  O   PRO A   4      40.689  21.345  21.438  0.00  0.00    -0.273 OA
ATOM     10  N   ARG A   5      41.469  19.625  20.277  0.00  0.00    -0.298 N 
ATOM     11  H   ARG A   5      42.129  19.284  19.549  0.00  0.00    +0.150 HD
BRANCH  10  12
ATOM     12  CA  ARG A   5      40.528  18.708  20.883  0.00  0.00    +0.137 C 
BRANCH  12  13
ATOM     13  C   ARG A   5      41.499  18.041  21.857  0.00  0.00    +0.227 C 
ATOM     14  O   ARG A   5      42.568  18.577  22.095  0.00  0.00    -0.286 OA
ENDBRANCH  12  13
BRANCH  12  15
ATOM     15  CB  ARG A   5      39.981  17.740  19.813  0.00  0.00    +0.031 C 
BRANCH  15  16
ATOM     16  CG  ARG A   5      41.028  16.985  18.961  0.00  0.00    +0.045 C 
BRANCH  16  17
ATOM     17  CD  ARG A   5      41.378  15.588  19.532  0.00  0.00    +0.174 C 
BRANCH  17  18
ATOM     18  NE  ARG A   5      42.388  14.923  18.705  0.00  0.00    -0.265 N 
ATOM     19  HE  ARG A   5      43.312  15.391  18.610  0.00  0.00    +0.259 HD
ATOM     20  CZ  ARG A   5      42.217  13.763  18.062  0.00  0.00    +0.342 C 
ATOM     21  NH2 ARG A   5      41.078  13.084  18.159  0.00  0.00    -0.292 N 
ATOM     22 HH21 ARG A   5      40.301  13.453  18.743  0.00  0.00    +0.255 HD
ATOM     23 HH22 ARG A   5      40.965  12.184  17.651  0.00  0.00    +0.255 HD
ATOM     24  NH1 ARG A   5      43.198  13.273  17.325  0.00  0.00    -0.292 N 
ATOM     25 HH11 ARG A   5      44.098  13.789  17.247  0.00  0.00    +0.255 HD
ATOM     26 HH12 ARG A   5      43.071  12.371  16.823  0.00  0.00    +0.255 HD
ENDBRANCH  17  18
ENDBRANCH  16  17
ENDBRANCH  15  16
ENDBRANCH  12  15
ENDBRANCH  10  12
ENDBRANCH   6   8
BRANCH   1  27
ATOM     27  CA  LEU A   3      40.997  22.513  17.768  0.00  0.00    +0.149 C 
BRANCH  27  29
ATOM     28  C   PRO A   2      39.723  23.923  16.227  0.00  0.00    +0.241 C 
ATOM     29  N   LEU A   3      39.764  22.953  17.139  0.00  0.00    -0.297 N 
ATOM     30  H   LEU A   3      38.874  22.490  17.413  0.00  0.00    +0.150 HD
ATOM     31  O   PRO A   2      40.735  24.492  15.799  0.00  0.00    -0.273 OA
BRANCH  28  37
ATOM     32  C   HIS A   1      37.395  22.044  15.623  0.00  0.00    +0.242 C 
ATOM     33  N   PRO A   2      37.268  23.314  16.044  0.00  0.00    -0.272 N 
ATOM     34  CD  PRO A   2      36.187  24.001  16.763  0.00  0.00    +0.094 C 
ATOM     35  CG  PRO A   2      36.843  25.241  17.214  0.00  0.00    +0.024 C 
ATOM     36  CB  PRO A   2      37.784  25.600  16.131  0.00  0.00    +0.031 C 
ATOM     37  CA  PRO A   2      38.333  24.250  15.669  0.00  0.00    +0.152 C 
ATOM     38  O   HIS A   1      38.351  21.696  14.936  0.00  0.00    -0.273 OA
BRANCH  32  39
ATOM     39  CA  HIS A   1      36.292  21.049  15.981  0.00  0.00    +0.151 C 
BRANCH  39  40
ATOM     40  N   HIS A   1      35.803  20.554  14.693  0.00  0.00    -0.238 NA
ATOM     41  H   HIS A   1      36.384  20.716  13.846  0.00  0.00    +0.142 HD
ENDBRANCH  39  40
BRANCH  39  42
ATOM     42  CB  HIS A   1      36.864  19.908  16.791  0.00  0.00    +0.074 C 
BRANCH  42  43
ATOM     43  CG  HIS A   1      37.137  20.260  18.215  0.00  0.00    +0.082 A 
ATOM     44  CD2 HIS A   1      36.636  19.769  19.371  0.00  0.00    +0.115 A 
ATOM     45  NE2 HIS A   1      37.282  20.418  20.400  0.00  0.00    -0.221 NA
ATOM     46  CE1 HIS A   1      38.138  21.287  19.892  0.00  0.00    +0.199 A 
ATOM     47  ND1 HIS A   1      38.067  21.212  18.574  0.00  0.00    -0.227 NA
ENDBRANCH  42  43
ENDBRANCH  39  42
ENDBRANCH  32  39
ENDBRANCH  28  37
ENDBRANCH  27  29
BRANCH  27  48
ATOM     48  CB  LEU A   3      42.096  22.275  16.720  0.00  0.00    +0.029 C 
BRANCH  48  49
ATOM     49  CG  LEU A   3      42.310  20.841  16.159  0.00  0.00    +0.002 C 
ATOM     50  CD2 LEU A   3      41.035  19.974  16.172  0.00  0.00    +0.000 C 
ATOM     51  CD1 LEU A   3      42.846  20.956  14.740  0.00  0.00    +0.000 C 
ENDBRANCH  48  49
ENDBRANCH  27  48
ENDBRANCH   1  27
TORSDOF 16
REMARK  Name = ../refined-set-2016/2fzg/2fzg_pocket.pdb
REMARK  233 active torsions:
REMARK  status: ('A' for Active; 'I' for Inactive)
REMARK    1  A    between atoms: _1  and  _3
REMARK    2  A    between atoms: _3  and  _4
REMARK    3  A    between atoms: _3  and  _6
REMARK    4  A    between atoms: _6  and  _7
REMARK    5  A    between atoms: _13  and  _15
REMARK    6  A    between atoms: _15  and  _16
REMARK    7  A    between atoms: _15  and  _18
REMARK    8  A    between atoms: _18  and  _19
REMARK    9  A    between atoms: _19  and  _20
REMARK   10  A    between atoms: _23  and  _25
REMARK   11  A    between atoms: _25  and  _26
REMARK   12  A    between atoms: _29  and  _31
REMARK   13  A    between atoms: _31  and  _32
REMARK   14  A    between atoms: _31  and  _34
REMARK   15  A    between atoms: _34  and  _35
REMARK   16  A    between atoms: _37  and  _39
REMARK   17  A    between atoms: _39  and  _40
REMARK   18  A    between atoms: _39  and  _42
REMARK   19  A    between atoms: _42  and  _43
REMARK   20  A    between atoms: _46  and  _48
REMARK   21  A    between atoms: _48  and  _49
REMARK   22  A    between atoms: _48  and  _51
REMARK   23  A    between atoms: _51  and  _52
REMARK   24  A    between atoms: _52  and  _53
REMARK   25  A    between atoms: _53  and  _54
REMARK   26  A    between atoms: _63  and  _65
REMARK   27  A    between atoms: _65  and  _66
REMARK   28  A    between atoms: _65  and  _68
REMARK   29  A    between atoms: _68  and  _69
REMARK   30  A    between atoms: _72  and  _74
REMARK   31  A    between atoms: _74  and  _75
REMARK   32  A    between atoms: _74  and  _77
REMARK   33  A    between atoms: _77  and  _78
REMARK   34  A    between atoms: _78  and  _79
REMARK   35  A    between atoms: _79  and  _80
REMARK   36  A    between atoms: _89  and  _91
REMARK   37  A    between atoms: _91  and  _92
REMARK   38  A    between atoms: _91  and  _94
REMARK   39  A    between atoms: _94  and  _95
REMARK   40  A    between atoms: _98  and  _100
REMARK   41  A    between atoms: _100  and  _101
REMARK   42  A    between atoms: _100  and  _103
REMARK   43  A    between atoms: _103  and  _104
REMARK   44  A    between atoms: _106  and  _108
REMARK   45  A    between atoms: _108  and  _109
REMARK   46  A    between atoms: _108  and  _111
REMARK   47  A    between atoms: _111  and  _112
REMARK   48  A    between atoms: _118  and  _120
REMARK   49  A    between atoms: _120  and  _121
REMARK   50  A    between atoms: _120  and  _123
REMARK   51  A    between atoms: _123  and  _124
REMARK   52  A    between atoms: _124  and  _125
REMARK   53  A    between atoms: _125  and  _126
REMARK   54  A    between atoms: _135  and  _137
REMARK   55  A    between atoms: _137  and  _138
REMARK   56  A    between atoms: _141  and  _143
REMARK   57  A    between atoms: _143  and  _144
REMARK   58  A    between atoms: _146  and  _148
REMARK   59  A    between atoms: _148  and  _149
REMARK   60  A    between atoms: _148  and  _151
REMARK   61  A    between atoms: _151  and  _152
REMARK   62  A    between atoms: _155  and  _157
REMARK   63  A    between atoms: _157  and  _158
REMARK   64  A    between atoms: _160  and  _162
REMARK   65  A    between atoms: _162  and  _163
REMARK   66  A    between atoms: _162  and  _165
REMARK   67  A    between atoms: _165  and  _166
REMARK   68  A    between atoms: _168  and  _170
REMARK   69  A    between atoms: _170  and  _171
REMARK   70  A    between atoms: _170  and  _173
REMARK   71  A    between atoms: _173  and  _174
REMARK   72  A    between atoms: _174  and  _175
REMARK   73  A    between atoms: _180  and  _182
REMARK   74  A    between atoms: _182  and  _183
REMARK   75  A    between atoms: _182  and  _185
REMARK   76  A    between atoms: _185  and  _186
REMARK   77  A    between atoms: _191  and  _193
REMARK   78  A    between atoms: _193  and  _194
REMARK   79  A    between atoms: _193  and  _196
REMARK   80  A    between atoms: _196  and  _197
REMARK   81  A    between atoms: _200  and  _202
REMARK   82  A    between atoms: _202  and  _203
REMARK   83  A    between atoms: _202  and  _205
REMARK   84  A    between atoms: _205  and  _206
REMARK   85  A    between atoms: _206  and  _207
REMARK   86  A    between atoms: _212  and  _214
REMARK   87  A    between atoms: _214  and  _215
REMARK   88  A    between atoms: _214  and  _217
REMARK   89  A    between atoms: _217  and  _218
REMARK   90  A    between atoms: _221  and  _223
REMARK   91  A    between atoms: _223  and  _224
REMARK   92  A    between atoms: _223  and  _226
REMARK   93  A    between atoms: _226  and  _227
REMARK   94  A    between atoms: _230  and  _232
REMARK   95  A    between atoms: _232  and  _233
REMARK   96  A    between atoms: _232  and  _235
REMARK   97  A    between atoms: _238  and  _240
REMARK   98  A    between atoms: _240  and  _241
REMARK   99  A    between atoms: _240  and  _243
REMARK  100  A    between atoms: _243  and  _244
REMARK  101  A    between atoms: _247  and  _249
REMARK  102  A    between atoms: _249  and  _250
REMARK  103  A    between atoms: _249  and  _252
REMARK  104  A    between atoms: _252  and  _253
REMARK  105  A    between atoms: _258  and  _259
REMARK  106  A    between atoms: _261  and  _263
REMARK  107  A    between atoms: _263  and  _264
REMARK  108  A    between atoms: _266  and  _268
REMARK  109  A    between atoms: _268  and  _269
REMARK  110  A    between atoms: _268  and  _271
REMARK  111  A    between atoms: _271  and  _272
REMARK  112  A    between atoms: _272  and  _273
REMARK  113  A    between atoms: _273  and  _274
REMARK  114  A    between atoms: _283  and  _285
REMARK  115  A    between atoms: _285  and  _286
REMARK  116  A    between atoms: _285  and  _288
REMARK  117  A    between atoms: _288  and  _289
REMARK  118  A    between atoms: _292  and  _294
REMARK  119  A    between atoms: _294  and  _295
REMARK  120  A    between atoms: _294  and  _297
REMARK  121  A    between atoms: _300  and  _302
REMARK  122  A    between atoms: _302  and  _303
REMARK  123  A    between atoms: _302  and  _305
REMARK  124  A    between atoms: _305  and  _306
REMARK  125  A    between atoms: _311  and  _313
REMARK  126  A    between atoms: _313  and  _314
REMARK  127  A    between atoms: _313  and  _316
REMARK  128  A    between atoms: _316  and  _317
REMARK  129  A    between atoms: _319  and  _321
REMARK  130  A    between atoms: _321  and  _322
REMARK  131  A    between atoms: _321  and  _324
REMARK  132  A    between atoms: _324  and  _325
REMARK  133  A    between atoms: _330  and  _331
REMARK  134  A    between atoms: _333  and  _335
REMARK  135  A    between atoms: _335  and  _336
REMARK  136  A    between atoms: _335  and  _338
REMARK  137  A    between atoms: _338  and  _339
REMARK  138  A    between atoms: _339  and  _340
REMARK  139  A    between atoms: _342  and  _344
REMARK  140  A    between atoms: _344  and  _345
REMARK  141  A    between atoms: _344  and  _347
REMARK  142  A    between atoms: _347  and  _348
REMARK  143  A    between atoms: _351  and  _353
REMARK  144  A    between atoms: _353  and  _354
REMARK  145  A    between atoms: _353  and  _356
REMARK  146  A    between atoms: _356  and  _357
REMARK  147  A    between atoms: _357  and  _358
REMARK  148  A    between atoms: _358  and  _359
REMARK  149  A    between atoms: _368  and  _370
REMARK  150  A    between atoms: _370  and  _371
REMARK  151  A    between atoms: _370  and  _373
REMARK  152  A    between atoms: _376  and  _378
REMARK  153  A    between atoms: _378  and  _379
REMARK  154  A    between atoms: _378  and  _381
REMARK  155  A    between atoms: _381  and  _382
REMARK  156  A    between atoms: _382  and  _383
REMARK  157  A    between atoms: _388  and  _390
REMARK  158  A    between atoms: _390  and  _391
REMARK  159  A    between atoms: _390  and  _393
REMARK  160  A    between atoms: _393  and  _394
REMARK  161  A    between atoms: _394  and  _395
REMARK  162  A    between atoms: _395  and  _396
REMARK  163  A    between atoms: _405  and  _407
REMARK  164  A    between atoms: _407  and  _408
REMARK  165  A    between atoms: _407  and  _410
REMARK  166  A    between atoms: _410  and  _411
REMARK  167  A    between atoms: _417  and  _418
REMARK  168  A    between atoms: _423  and  _425
REMARK  169  A    between atoms: _425  and  _426
REMARK  170  A    between atoms: _425  and  _428
REMARK  171  A    between atoms: _428  and  _429
REMARK  172  A    between atoms: _433  and  _434
REMARK  173  A    between atoms: _439  and  _441
REMARK  174  A    between atoms: _441  and  _442
REMARK  175  A    between atoms: _441  and  _444
REMARK  176  A    between atoms: _444  and  _445
REMARK  177  A    between atoms: _445  and  _446
REMARK  178  A    between atoms: _446  and  _447
REMARK  179  A    between atoms: _456  and  _458
REMARK  180  A    between atoms: _458  and  _459
REMARK  181  A    between atoms: _458  and  _461
REMARK  182  A    between atoms: _461  and  _462
REMARK  183  A    between atoms: _462  and  _463
REMARK  184  A    between atoms: _466  and  _468
REMARK  185  A    between atoms: _468  and  _469
REMARK  186  A    between atoms: _468  and  _471
REMARK  187  A    between atoms: _471  and  _472
REMARK  188  A    between atoms: _472  and  _473
REMARK  189  A    between atoms: _478  and  _480
REMARK  190  A    between atoms: _480  and  _481
REMARK  191  A    between atoms: _484  and  _486
REMARK  192  A    between atoms: _486  and  _487
REMARK  193  A    between atoms: _486  and  _489
REMARK  194  A    between atoms: _489  and  _490
REMARK  195  A    between atoms: _490  and  _491
REMARK  196  A    between atoms: _491  and  _492
REMARK  197  A    between atoms: _501  and  _503
REMARK  198  A    between atoms: _503  and  _504
REMARK  199  A    between atoms: _503  and  _506
REMARK  200  A    between atoms: _506  and  _507
REMARK  201  A    between atoms: _509  and  _511
REMARK  202  A    between atoms: _511  and  _512
REMARK  203  A    between atoms: _511  and  _514
REMARK  204  A    between atoms: _514  and  _515
REMARK  205  A    between atoms: _518  and  _520
REMARK  206  A    between atoms: _520  and  _521
REMARK  207  A    between atoms: _523  and  _525
REMARK  208  A    between atoms: _525  and  _526
REMARK  209  A    between atoms: _525  and  _528
REMARK  210  A    between atoms: _528  and  _529
REMARK  211  A    between atoms: _529  and  _530
REMARK  212  A    between atoms: _530  and  _531
REMARK  213  A    between atoms: _531  and  _532
REMARK  214  A    between atoms: _536  and  _538
REMARK  215  A    between atoms: _538  and  _539
REMARK  216  A    between atoms: _538  and  _541
REMARK  217  A    between atoms: _541  and  _542
REMARK  218  A    between atoms: _542  and  _543
REMARK  219  A    between atoms: _543  and  _544
REMARK  220  A    between atoms: _544  and  _545
REMARK  221  A    between atoms: _549  and  _551
REMARK  222  A    between atoms: _551  and  _552
REMARK  223  A    between atoms: _551  and  _554
REMARK  224  A    between atoms: _554  and  _555
REMARK  225  A    between atoms: _555  and  _556
REMARK  226  A    between atoms: _559  and  _561
REMARK  227  A    between atoms: _561  and  _562
REMARK  228  A    between atoms: _561  and  _564
REMARK  229  A    between atoms: _567  and  _569
REMARK  230  A    between atoms: _569  and  _570
REMARK  231  A    between atoms: _569  and  _572
REMARK  232  A    between atoms: _572  and  _573
REMARK  233  A    between atoms: _578  and  _579
REMARK                            x       y       z     vdW  Elec       q    Type
REMARK                         _______ _______ _______ _____ _____    ______ ____
ROOT
ATOM      1  CA  GLU A   1      36.511  16.302  23.920  0.00  0.00    +0.134 C 
ENDROOT
BRANCH   1   2
ATOM      2  N   GLU A   1      37.887  16.524  24.415  0.00  0.00    -0.239 NA
ATOM      3  H   GLU A   1      38.609  16.887  23.760  0.00  0.00    +0.142 HD
ENDBRANCH   1   2
BRANCH   1   4
ATOM      4  C   GLU A   1      36.355  15.183  22.908  0.00  0.00    +0.224 C 
ATOM      5  O   GLU A   1      35.359  14.471  22.919  0.00  0.00    -0.287 OA
ENDBRANCH   1   4
BRANCH   1   6
ATOM      6  CB  GLU A   1      35.933  17.567  23.269  0.00  0.00    +0.037 C 
BRANCH   6   7
ATOM      7  CG  GLU A   1      35.879  18.820  24.117  0.00  0.00    +0.116 C 
BRANCH   7   8
ATOM      8  CD  GLU A   1      37.237  19.517  24.210  0.00  0.00    +0.365 C 
ATOM      9  OE2 GLU A   1      37.551  20.102  25.292  0.00  0.00    -0.246 OA
ATOM     10  OE1 GLU A   1      37.974  19.500  23.186  0.00  0.00    -0.246 OA
ENDBRANCH   7   8
ENDBRANCH   6   7
ENDBRANCH   1   6
TORSDOF 5
REMARK  Name = ../refined-set-2016/2fzg/2fzg_pocket.pdb
REMARK  233 active torsions:
REMARK  status: ('A' for Active; 'I' for Inactive)
REMARK    1  A    between atoms: _1  and  _3
REMARK    2  A    between atoms: _3  and  _4
REMARK    3  A    between atoms: _3  and  _6
REMARK    4  A    between atoms: _6  and  _7
REMARK    5  A    between atoms: _13  and  _15
REMARK    6  A    between atoms: _15  and  _16
REMARK    7  A    between atoms: _15  and  _18
REMARK    8  A    between atoms: _18  and  _19
REMARK    9  A    between atoms: _19  and  _20
REMARK   10  A    between atoms: _23  and  _25
REMARK   11  A    between atoms: _25  and  _26
REMARK   12  A    between atoms: _29  and  _31
REMARK   13  A    between atoms: _31  and  _32
REMARK   14  A    between atoms: _31  and  _34
REMARK   15  A    between atoms: _34  and  _35
REMARK   16  A    between atoms: _37  and  _39
REMARK   17  A    between atoms: _39  and  _40
REMARK   18  A    between atoms: _39  and  _42
REMARK   19  A    between atoms: _42  and  _43
REMARK   20  A    between atoms: _46  and  _48
REMARK   21  A    between atoms: _48  and  _49
REMARK   22  A    between atoms: _48  and  _51
REMARK   23  A    between atoms: _51  and  _52
REMARK   24  A    between atoms: _52  and  _53
REMARK   25  A    between atoms: _53  and  _54
REMARK   26  A    between atoms: _63  and  _65
REMARK   27  A    between atoms: _65  and  _66
REMARK   28  A    between atoms: _65  and  _68
REMARK   29  A    between atoms: _68  and  _69
REMARK   30  A    between atoms: _72  and  _74
REMARK   31  A    between atoms: _74  and  _75
REMARK   32  A    between atoms: _74  and  _77
REMARK   33  A    between atoms: _77  and  _78
REMARK   34  A    between atoms: _78  and  _79
REMARK   35  A    between atoms: _79  and  _80
REMARK   36  A    between atoms: _89  and  _91
REMARK   37  A    between atoms: _91  and  _92
REMARK   38  A    between atoms: _91  and  _94
REMARK   39  A    between atoms: _94  and  _95
REMARK   40  A    between atoms: _98  and  _100
REMARK   41  A    between atoms: _100  and  _101
REMARK   42  A    between atoms: _100  and  _103
REMARK   43  A    between atoms: _103  and  _104
REMARK   44  A    between atoms: _106  and  _108
REMARK   45  A    between atoms: _108  and  _109
REMARK   46  A    between atoms: _108  and  _111
REMARK   47  A    between atoms: _111  and  _112
REMARK   48  A    between atoms: _118  and  _120
REMARK   49  A    between atoms: _120  and  _121
REMARK   50  A    between atoms: _120  and  _123
REMARK   51  A    between atoms: _123  and  _124
REMARK   52  A    between atoms: _124  and  _125
REMARK   53  A    between atoms: _125  and  _126
REMARK   54  A    between atoms: _135  and  _137
REMARK   55  A    between atoms: _137  and  _138
REMARK   56  A    between atoms: _141  and  _143
REMARK   57  A    between atoms: _143  and  _144
REMARK   58  A    between atoms: _146  and  _148
REMARK   59  A    between atoms: _148  and  _149
REMARK   60  A    between atoms: _148  and  _151
REMARK   61  A    between atoms: _151  and  _152
REMARK   62  A    between atoms: _155  and  _157
REMARK   63  A    between atoms: _157  and  _158
REMARK   64  A    between atoms: _160  and  _162
REMARK   65  A    between atoms: _162  and  _163
REMARK   66  A    between atoms: _162  and  _165
REMARK   67  A    between atoms: _165  and  _166
REMARK   68  A    between atoms: _168  and  _170
REMARK   69  A    between atoms: _170  and  _171
REMARK   70  A    between atoms: _170  and  _173
REMARK   71  A    between atoms: _173  and  _174
REMARK   72  A    between atoms: _174  and  _175
REMARK   73  A    between atoms: _180  and  _182
REMARK   74  A    between atoms: _182  and  _183
REMARK   75  A    between atoms: _182  and  _185
REMARK   76  A    between atoms: _185  and  _186
REMARK   77  A    between atoms: _191  and  _193
REMARK   78  A    between atoms: _193  and  _194
REMARK   79  A    between atoms: _193  and  _196
REMARK   80  A    between atoms: _196  and  _197
REMARK   81  A    between atoms: _200  and  _202
REMARK   82  A    between atoms: _202  and  _203
REMARK   83  A    between atoms: _202  and  _205
REMARK   84  A    between atoms: _205  and  _206
REMARK   85  A    between atoms: _206  and  _207
REMARK   86  A    between atoms: _212  and  _214
REMARK   87  A    between atoms: _214  and  _215
REMARK   88  A    between atoms: _214  and  _217
REMARK   89  A    between atoms: _217  and  _218
REMARK   90  A    between atoms: _221  and  _223
REMARK   91  A    between atoms: _223  and  _224
REMARK   92  A    between atoms: _223  and  _226
REMARK   93  A    between atoms: _226  and  _227
REMARK   94  A    between atoms: _230  and  _232
REMARK   95  A    between atoms: _232  and  _233
REMARK   96  A    between atoms: _232  and  _235
REMARK   97  A    between atoms: _238  and  _240
REMARK   98  A    between atoms: _240  and  _241
REMARK   99  A    between atoms: _240  and  _243
REMARK  100  A    between atoms: _243  and  _244
REMARK  101  A    between atoms: _247  and  _249
REMARK  102  A    between atoms: _249  and  _250
REMARK  103  A    between atoms: _249  and  _252
REMARK  104  A    between atoms: _252  and  _253
REMARK  105  A    between atoms: _258  and  _259
REMARK  106  A    between atoms: _261  and  _263
REMARK  107  A    between atoms: _263  and  _264
REMARK  108  A    between atoms: _266  and  _268
REMARK  109  A    between atoms: _268  and  _269
REMARK  110  A    between atoms: _268  and  _271
REMARK  111  A    between atoms: _271  and  _272
REMARK  112  A    between atoms: _272  and  _273
REMARK  113  A    between atoms: _273  and  _274
REMARK  114  A    between atoms: _283  and  _285
REMARK  115  A    between atoms: _285  and  _286
REMARK  116  A    between atoms: _285  and  _288
REMARK  117  A    between atoms: _288  and  _289
REMARK  118  A    between atoms: _292  and  _294
REMARK  119  A    between atoms: _294  and  _295
REMARK  120  A    between atoms: _294  and  _297
REMARK  121  A    between atoms: _300  and  _302
REMARK  122  A    between atoms: _302  and  _303
REMARK  123  A    between atoms: _302  and  _305
REMARK  124  A    between atoms: _305  and  _306
REMARK  125  A    between atoms: _311  and  _313
REMARK  126  A    between atoms: _313  and  _314
REMARK  127  A    between atoms: _313  and  _316
REMARK  128  A    between atoms: _316  and  _317
REMARK  129  A    between atoms: _319  and  _321
REMARK  130  A    between atoms: _321  and  _322
REMARK  131  A    between atoms: _321  and  _324
REMARK  132  A    between atoms: _324  and  _325
REMARK  133  A    between atoms: _330  and  _331
REMARK  134  A    between atoms: _333  and  _335
REMARK  135  A    between atoms: _335  and  _336
REMARK  136  A    between atoms: _335  and  _338
REMARK  137  A    between atoms: _338  and  _339
REMARK  138  A    between atoms: _339  and  _340
REMARK  139  A    between atoms: _342  and  _344
REMARK  140  A    between atoms: _344  and  _345
REMARK  141  A    between atoms: _344  and  _347
REMARK  142  A    between atoms: _347  and  _348
REMARK  143  A    between atoms: _351  and  _353
REMARK  144  A    between atoms: _353  and  _354
REMARK  145  A    between atoms: _353  and  _356
REMARK  146  A    between atoms: _356  and  _357
REMARK  147  A    between atoms: _357  and  _358
REMARK  148  A    between atoms: _358  and  _359
REMARK  149  A    between atoms: _368  and  _370
REMARK  150  A    between atoms: _370  and  _371
REMARK  151  A    between atoms: _370  and  _373
REMARK  152  A    between atoms: _376  and  _378
REMARK  153  A    between atoms: _378  and  _379
REMARK  154  A    between atoms: _378  and  _381
REMARK  155  A    between atoms: _381  and  _382
REMARK  156  A    between atoms: _382  and  _383
REMARK  157  A    between atoms: _388  and  _390
REMARK  158  A    between atoms: _390  and  _391
REMARK  159  A    between atoms: _390  and  _393
REMARK  160  A    between atoms: _393  and  _394
REMARK  161  A    between atoms: _394  and  _395
REMARK  162  A    between atoms: _395  and  _396
REMARK  163  A    between atoms: _405  and  _407
REMARK  164  A    between atoms: _407  and  _408
REMARK  165  A    between atoms: _407  and  _410
REMARK  166  A    between atoms: _410  and  _411
REMARK  167  A    between atoms: _417  and  _418
REMARK  168  A    between atoms: _423  and  _425
REMARK  169  A    between atoms: _425  and  _426
REMARK  170  A    between atoms: _425  and  _428
REMARK  171  A    between atoms: _428  and  _429
REMARK  172  A    between atoms: _433  and  _434
REMARK  173  A    between atoms: _439  and  _441
REMARK  174  A    between atoms: _441  and  _442
REMARK  175  A    between atoms: _441  and  _444
REMARK  176  A    between atoms: _444  and  _445
REMARK  177  A    between atoms: _445  and  _446
REMARK  178  A    between atoms: _446  and  _447
REMARK  179  A    between atoms: _456  and  _458
REMARK  180  A    between atoms: _458  and  _459
REMARK  181  A    between atoms: _458  and  _461
REMARK  182  A    between atoms: _461  and  _462
REMARK  183  A    between atoms: _462  and  _463
REMARK  184  A    between atoms: _466  and  _468
REMARK  185  A    between atoms: _468  and  _469
REMARK  186  A    between atoms: _468  and  _471
REMARK  187  A    between atoms: _471  and  _472
REMARK  188  A    between atoms: _472  and  _473
REMARK  189  A    between atoms: _478  and  _480
REMARK  190  A    between atoms: _480  and  _481
REMARK  191  A    between atoms: _484  and  _486
REMARK  192  A    between atoms: _486  and  _487
REMARK  193  A    between atoms: _486  and  _489
REMARK  194  A    between atoms: _489  and  _490
REMARK  195  A    between atoms: _490  and  _491
REMARK  196  A    between atoms: _491  and  _492
REMARK  197  A    between atoms: _501  and  _503
REMARK  198  A    between atoms: _503  and  _504
REMARK  199  A    between atoms: _503  and  _506
REMARK  200  A    between atoms: _506  and  _507
REMARK  201  A    between atoms: _509  and  _511
REMARK  202  A    between atoms: _511  and  _512
REMARK  203  A    between atoms: _511  and  _514
REMARK  204  A    between atoms: _514  and  _515
REMARK  205  A    between atoms: _518  and  _520
REMARK  206  A    between atoms: _520  and  _521
REMARK  207  A    between atoms: _523  and  _525
REMARK  208  A    between atoms: _525  and  _526
REMARK  209  A    between atoms: _525  and  _528
REMARK  210  A    between atoms: _528  and  _529
REMARK  211  A    between atoms: _529  and  _530
REMARK  212  A    between atoms: _530  and  _531
REMARK  213  A    between atoms: _531  and  _532
REMARK  214  A    between atoms: _536  and  _538
REMARK  215  A    between atoms: _538  and  _539
REMARK  216  A    between atoms: _538  and  _541
REMARK  217  A    between atoms: _541  and  _542
REMARK  218  A    between atoms: _542  and  _543
REMARK  219  A    between atoms: _543  and  _544
REMARK  220  A    between atoms: _544  and  _545
REMARK  221  A    between atoms: _549  and  _551
REMARK  222  A    between atoms: _551  and  _552
REMARK  223  A    between atoms: _551  and  _554
REMARK  224  A    between atoms: _554  and  _555
REMARK  225  A    between atoms: _555  and  _556
REMARK  226  A    between atoms: _559  and  _561
REMARK  227  A    between atoms: _561  and  _562
REMARK  228  A    between atoms: _561  and  _564
REMARK  229  A    between atoms: _567  and  _569
REMARK  230  A    between atoms: _569  and  _570
REMARK  231  A    between atoms: _569  and  _572
REMARK  232  A    between atoms: _572  and  _573
REMARK  233  A    between atoms: _578  and  _579
REMARK                            x       y       z     vdW  Elec       q    Type
REMARK                         _______ _______ _______ _____ _____    ______ ____
ROOT
ATOM      1  CA  GLN A   1      38.610  21.295   8.276  0.00  0.00    +0.145 C 
ENDROOT
BRANCH   1   2
ATOM      2  C   GLN A   1      39.782  22.286   8.416  0.00  0.00    +0.238 C 
ATOM      3  N   ALA A   2      40.775  21.917   9.203  0.00  0.00    -0.298 N 
ATOM      4  H   ALA A   2      40.735  20.994   9.680  0.00  0.00    +0.150 HD
ATOM      5  O   GLN A   1      39.799  23.360   7.818  0.00  0.00    -0.274 OA
BRANCH   3   6
ATOM      6  CA  ALA A   2      41.930  22.788   9.414  0.00  0.00    +0.137 C 
ATOM      7  CB  ALA A   2      42.859  22.158  10.458  0.00  0.00    +0.030 C 
BRANCH   6   8
ATOM      8  C   ALA A   2      42.678  23.016   8.101  0.00  0.00    +0.227 C 
ATOM      9  O   ALA A   2      43.221  24.113   7.868  0.00  0.00    -0.286 OA
ENDBRANCH   6   8
ENDBRANCH   3   6
ENDBRANCH   1   2
BRANCH   1  10
ATOM     10  N   GLN A   1      39.112  19.975   8.044  0.00  0.00    -0.238 NA
ATOM     11  H   GLN A   1      38.852  19.212   8.701  0.00  0.00    +0.142 HD
ENDBRANCH   1  10
BRANCH   1  12
ATOM     12  CB  GLN A   1      37.809  21.233   9.542  0.00  0.00    +0.036 C 
BRANCH  12  13
ATOM     13  CG  GLN A   1      37.393  22.531  10.064  0.00  0.00    +0.087 C 
BRANCH  13  14
ATOM     14  CD  GLN A   1      36.824  22.410  11.476  0.00  0.00    +0.219 C 
ATOM     15  OE1 GLN A   1      36.441  23.409  12.080  0.00  0.00    -0.275 OA
ATOM     16  NE2 GLN A   1      36.772  21.188  11.996  0.00  0.00    -0.329 N 
ATOM     17 HE21 GLN A   1      36.394  21.046  12.955  0.00  0.00    +0.145 HD
ATOM     18 HE22 GLN A   1      37.109  20.373  11.444  0.00  0.00    +0.145 HD
ENDBRANCH  13  14
ENDBRANCH  12  13
ENDBRANCH   1  12
TORSDOF 7
REMARK  Name = ../refined-set-2016/2fzg/2fzg_pocket.pdb
REMARK  233 active torsions:
REMARK  status: ('A' for Active; 'I' for Inactive)
REMARK    1  A    between atoms: _1  and  _3
REMARK    2  A    between atoms: _3  and  _4
REMARK    3  A    between atoms: _3  and  _6
REMARK    4  A    between atoms: _6  and  _7
REMARK    5  A    between atoms: _13  and  _15
REMARK    6  A    between atoms: _15  and  _16
REMARK    7  A    between atoms: _15  and  _18
REMARK    8  A    between atoms: _18  and  _19
REMARK    9  A    between atoms: _19  and  _20
REMARK   10  A    between atoms: _23  and  _25
REMARK   11  A    between atoms: _25  and  _26
REMARK   12  A    between atoms: _29  and  _31
REMARK   13  A    between atoms: _31  and  _32
REMARK   14  A    between atoms: _31  and  _34
REMARK   15  A    between atoms: _34  and  _35
REMARK   16  A    between atoms: _37  and  _39
REMARK   17  A    between atoms: _39  and  _40
REMARK   18  A    between atoms: _39  and  _42
REMARK   19  A    between atoms: _42  and  _43
REMARK   20  A    between atoms: _46  and  _48
REMARK   21  A    between atoms: _48  and  _49
REMARK   22  A    between atoms: _48  and  _51
REMARK   23  A    between atoms: _51  and  _52
REMARK   24  A    between atoms: _52  and  _53
REMARK   25  A    between atoms: _53  and  _54
REMARK   26  A    between atoms: _63  and  _65
REMARK   27  A    between atoms: _65  and  _66
REMARK   28  A    between atoms: _65  and  _68
REMARK   29  A    between atoms: _68  and  _69
REMARK   30  A    between atoms: _72  and  _74
REMARK   31  A    between atoms: _74  and  _75
REMARK   32  A    between atoms: _74  and  _77
REMARK   33  A    between atoms: _77  and  _78
REMARK   34  A    between atoms: _78  and  _79
REMARK   35  A    between atoms: _79  and  _80
REMARK   36  A    between atoms: _89  and  _91
REMARK   37  A    between atoms: _91  and  _92
REMARK   38  A    between atoms: _91  and  _94
REMARK   39  A    between atoms: _94  and  _95
REMARK   40  A    between atoms: _98  and  _100
REMARK   41  A    between atoms: _100  and  _101
REMARK   42  A    between atoms: _100  and  _103
REMARK   43  A    between atoms: _103  and  _104
REMARK   44  A    between atoms: _106  and  _108
REMARK   45  A    between atoms: _108  and  _109
REMARK   46  A    between atoms: _108  and  _111
REMARK   47  A    between atoms: _111  and  _112
REMARK   48  A    between atoms: _118  and  _120
REMARK   49  A    between atoms: _120  and  _121
REMARK   50  A    between atoms: _120  and  _123
REMARK   51  A    between atoms: _123  and  _124
REMARK   52  A    between atoms: _124  and  _125
REMARK   53  A    between atoms: _125  and  _126
REMARK   54  A    between atoms: _135  and  _137
REMARK   55  A    between atoms: _137  and  _138
REMARK   56  A    between atoms: _141  and  _143
REMARK   57  A    between atoms: _143  and  _144
REMARK   58  A    between atoms: _146  and  _148
REMARK   59  A    between atoms: _148  and  _149
REMARK   60  A    between atoms: _148  and  _151
REMARK   61  A    between atoms: _151  and  _152
REMARK   62  A    between atoms: _155  and  _157
REMARK   63  A    between atoms: _157  and  _158
REMARK   64  A    between atoms: _160  and  _162
REMARK   65  A    between atoms: _162  and  _163
REMARK   66  A    between atoms: _162  and  _165
REMARK   67  A    between atoms: _165  and  _166
REMARK   68  A    between atoms: _168  and  _170
REMARK   69  A    between atoms: _170  and  _171
REMARK   70  A    between atoms: _170  and  _173
REMARK   71  A    between atoms: _173  and  _174
REMARK   72  A    between atoms: _174  and  _175
REMARK   73  A    between atoms: _180  and  _182
REMARK   74  A    between atoms: _182  and  _183
REMARK   75  A    between atoms: _182  and  _185
REMARK   76  A    between atoms: _185  and  _186
REMARK   77  A    between atoms: _191  and  _193
REMARK   78  A    between atoms: _193  and  _194
REMARK   79  A    between atoms: _193  and  _196
REMARK   80  A    between atoms: _196  and  _197
REMARK   81  A    between atoms: _200  and  _202
REMARK   82  A    between atoms: _202  and  _203
REMARK   83  A    between atoms: _202  and  _205
REMARK   84  A    between atoms: _205  and  _206
REMARK   85  A    between atoms: _206  and  _207
REMARK   86  A    between atoms: _212  and  _214
REMARK   87  A    between atoms: _214  and  _215
REMARK   88  A    between atoms: _214  and  _217
REMARK   89  A    between atoms: _217  and  _218
REMARK   90  A    between atoms: _221  and  _223
REMARK   91  A    between atoms: _223  and  _224
REMARK   92  A    between atoms: _223  and  _226
REMARK   93  A    between atoms: _226  and  _227
REMARK   94  A    between atoms: _230  and  _232
REMARK   95  A    between atoms: _232  and  _233
REMARK   96  A    between atoms: _232  and  _235
REMARK   97  A    between atoms: _238  and  _240
REMARK   98  A    between atoms: _240  and  _241
REMARK   99  A    between atoms: _240  and  _243
REMARK  100  A    between atoms: _243  and  _244
REMARK  101  A    between atoms: _247  and  _249
REMARK  102  A    between atoms: _249  and  _250
REMARK  103  A    between atoms: _249  and  _252
REMARK  104  A    between atoms: _252  and  _253
REMARK  105  A    between atoms: _258  and  _259
REMARK  106  A    between atoms: _261  and  _263
REMARK  107  A    between atoms: _263  and  _264
REMARK  108  A    between atoms: _266  and  _268
REMARK  109  A    between atoms: _268  and  _269
REMARK  110  A    between atoms: _268  and  _271
REMARK  111  A    between atoms: _271  and  _272
REMARK  112  A    between atoms: _272  and  _273
REMARK  113  A    between atoms: _273  and  _274
REMARK  114  A    between atoms: _283  and  _285
REMARK  115  A    between atoms: _285  and  _286
REMARK  116  A    between atoms: _285  and  _288
REMARK  117  A    between atoms: _288  and  _289
REMARK  118  A    between atoms: _292  and  _294
REMARK  119  A    between atoms: _294  and  _295
REMARK  120  A    between atoms: _294  and  _297
REMARK  121  A    between atoms: _300  and  _302
REMARK  122  A    between atoms: _302  and  _303
REMARK  123  A    between atoms: _302  and  _305
REMARK  124  A    between atoms: _305  and  _306
REMARK  125  A    between atoms: _311  and  _313
REMARK  126  A    between atoms: _313  and  _314
REMARK  127  A    between atoms: _313  and  _316
REMARK  128  A    between atoms: _316  and  _317
REMARK  129  A    between atoms: _319  and  _321
REMARK  130  A    between atoms: _321  and  _322
REMARK  131  A    between atoms: _321  and  _324
REMARK  132  A    between atoms: _324  and  _325
REMARK  133  A    between atoms: _330  and  _331
REMARK  134  A    between atoms: _333  and  _335
REMARK  135  A    between atoms: _335  and  _336
REMARK  136  A    between atoms: _335  and  _338
REMARK  137  A    between atoms: _338  and  _339
REMARK  138  A    between atoms: _339  and  _340
REMARK  139  A    between atoms: _342  and  _344
REMARK  140  A    between atoms: _344  and  _345
REMARK  141  A    between atoms: _344  and  _347
REMARK  142  A    between atoms: _347  and  _348
REMARK  143  A    between atoms: _351  and  _353
REMARK  144  A    between atoms: _353  and  _354
REMARK  145  A    between atoms: _353  and  _356
REMARK  146  A    between atoms: _356  and  _357
REMARK  147  A    between atoms: _357  and  _358
REMARK  148  A    between atoms: _358  and  _359
REMARK  149  A    between atoms: _368  and  _370
REMARK  150  A    between atoms: _370  and  _371
REMARK  151  A    between atoms: _370  and  _373
REMARK  152  A    between atoms: _376  and  _378
REMARK  153  A    between atoms: _378  and  _379
REMARK  154  A    between atoms: _378  and  _381
REMARK  155  A    between atoms: _381  and  _382
REMARK  156  A    between atoms: _382  and  _383
REMARK  157  A    between atoms: _388  and  _390
REMARK  158  A    between atoms: _390  and  _391
REMARK  159  A    between atoms: _390  and  _393
REMARK  160  A    between atoms: _393  and  _394
REMARK  161  A    between atoms: _394  and  _395
REMARK  162  A    between atoms: _395  and  _396
REMARK  163  A    between atoms: _405  and  _407
REMARK  164  A    between atoms: _407  and  _408
REMARK  165  A    between atoms: _407  and  _410
REMARK  166  A    between atoms: _410  and  _411
REMARK  167  A    between atoms: _417  and  _418
REMARK  168  A    between atoms: _423  and  _425
REMARK  169  A    between atoms: _425  and  _426
REMARK  170  A    between atoms: _425  and  _428
REMARK  171  A    between atoms: _428  and  _429
REMARK  172  A    between atoms: _433  and  _434
REMARK  173  A    between atoms: _439  and  _441
REMARK  174  A    between atoms: _441  and  _442
REMARK  175  A    between atoms: _441  and  _444
REMARK  176  A    between atoms: _444  and  _445
REMARK  177  A    between atoms: _445  and  _446
REMARK  178  A    between atoms: _446  and  _447
REMARK  179  A    between atoms: _456  and  _458
REMARK  180  A    between atoms: _458  and  _459
REMARK  181  A    between atoms: _458  and  _461
REMARK  182  A    between atoms: _461  and  _462
REMARK  183  A    between atoms: _462  and  _463
REMARK  184  A    between atoms: _466  and  _468
REMARK  185  A    between atoms: _468  and  _469
REMARK  186  A    between atoms: _468  and  _471
REMARK  187  A    between atoms: _471  and  _472
REMARK  188  A    between atoms: _472  and  _473
REMARK  189  A    between atoms: _478  and  _480
REMARK  190  A    between atoms: _480  and  _481
REMARK  191  A    between atoms: _484  and  _486
REMARK  192  A    between atoms: _486  and  _487
REMARK  193  A    between atoms: _486  and  _489
REMARK  194  A    between atoms: _489  and  _490
REMARK  195  A    between atoms: _490  and  _491
REMARK  196  A    between atoms: _491  and  _492
REMARK  197  A    between atoms: _501  and  _503
REMARK  198  A    between atoms: _503  and  _504
REMARK  199  A    between atoms: _503  and  _506
REMARK  200  A    between atoms: _506  and  _507
REMARK  201  A    between atoms: _509  and  _511
REMARK  202  A    between atoms: _511  and  _512
REMARK  203  A    between atoms: _511  and  _514
REMARK  204  A    between atoms: _514  and  _515
REMARK  205  A    between atoms: _518  and  _520
REMARK  206  A    between atoms: _520  and  _521
REMARK  207  A    between atoms: _523  and  _525
REMARK  208  A    between atoms: _525  and  _526
REMARK  209  A    between atoms: _525  and  _528
REMARK  210  A    between atoms: _528  and  _529
REMARK  211  A    between atoms: _529  and  _530
REMARK  212  A    between atoms: _530  and  _531
REMARK  213  A    between atoms: _531  and  _532
REMARK  214  A    between atoms: _536  and  _538
REMARK  215  A    between atoms: _538  and  _539
REMARK  216  A    between atoms: _538  and  _541
REMARK  217  A    between atoms: _541  and  _542
REMARK  218  A    between atoms: _542  and  _543
REMARK  219  A    between atoms: _543  and  _544
REMARK  220  A    between atoms: _544  and  _545
REMARK  221  A    between atoms: _549  and  _551
REMARK  222  A    between atoms: _551  and  _552
REMARK  223  A    between atoms: _551  and  _554
REMARK  224  A    between atoms: _554  and  _555
REMARK  225  A    between atoms: _555  and  _556
REMARK  226  A    between atoms: _559  and  _561
REMARK  227  A    between atoms: _561  and  _562
REMARK  228  A    between atoms: _561  and  _564
REMARK  229  A    between atoms: _567  and  _569
REMARK  230  A    between atoms: _569  and  _570
REMARK  231  A    between atoms: _569  and  _572
REMARK  232  A    between atoms: _572  and  _573
REMARK  233  A    between atoms: _578  and  _579
REMARK                            x       y       z     vdW  Elec       q    Type
REMARK                         _______ _______ _______ _____ _____    ______ ____
ROOT
ATOM      1  NE  ARG A   1      42.741  31.528   8.705  0.00  0.00    -0.265 N 
ATOM      2  CZ  ARG A   1      42.601  30.686   9.719  0.00  0.00    +0.342 C 
ATOM      3  NH2 ARG A   1      41.863  31.041  10.771  0.00  0.00    -0.292 N 
ATOM      4 HH21 ARG A   1      41.748  30.386  11.571  0.00  0.00    +0.255 HD
ATOM      5 HH22 ARG A   1      41.402  31.973  10.792  0.00  0.00    +0.255 HD
ATOM      6  NH1 ARG A   1      43.185  29.498   9.691  0.00  0.00    -0.292 N 
ATOM      7 HH11 ARG A   1      43.070  28.843  10.491  0.00  0.00    +0.255 HD
ATOM      8 HH12 ARG A   1      43.759  29.220   8.869  0.00  0.00    +0.255 HD
ATOM      9  HE  ARG A   1      42.249  32.441   8.777  0.00  0.00    +0.259 HD
ENDROOT
BRANCH   1  10
ATOM     10  CD  ARG A   1      43.520  31.290   7.503  0.00  0.00    +0.174 C 
BRANCH  10  11
ATOM     11  CG  ARG A   1      42.914  32.173   6.377  0.00  0.00    +0.045 C 
BRANCH  11  12
ATOM     12  CB  ARG A   1      43.496  31.957   4.964  0.00  0.00    +0.029 C 
BRANCH  12  13
ATOM     13  CA  ARG A   1      42.431  32.233   3.875  0.00  0.00    +0.133 C 
BRANCH  13  14
ATOM     14  N   ARG A   1      41.610  31.062   3.621  0.00  0.00    -0.239 NA
ATOM     15  H   ARG A   1      41.945  30.105   3.854  0.00  0.00    +0.142 HD
ENDBRANCH  13  14
BRANCH  13  16
ATOM     16  C   ARG A   1      43.025  32.745   2.588  0.00  0.00    +0.224 C 
ATOM     17  O   ARG A   1      43.231  33.938   2.440  0.00  0.00    -0.287 OA
ENDBRANCH  13  16
ENDBRANCH  12  13
ENDBRANCH  11  12
ENDBRANCH  10  11
ENDBRANCH   1  10
TORSDOF 6
REMARK  Name = ../refined-set-2016/2fzg/2fzg_pocket.pdb
REMARK  233 active torsions:
REMARK  status: ('A' for Active; 'I' for Inactive)
REMARK    1  A    between atoms: _1  and  _3
REMARK    2  A    between atoms: _3  and  _4
REMARK    3  A    between atoms: _3  and  _6
REMARK    4  A    between atoms: _6  and  _7
REMARK    5  A    between atoms: _13  and  _15
REMARK    6  A    between atoms: _15  and  _16
REMARK    7  A    between atoms: _15  and  _18
REMARK    8  A    between atoms: _18  and  _19
REMARK    9  A    between atoms: _19  and  _20
REMARK   10  A    between atoms: _23  and  _25
REMARK   11  A    between atoms: _25  and  _26
REMARK   12  A    between atoms: _29  and  _31
REMARK   13  A    between atoms: _31  and  _32
REMARK   14  A    between atoms: _31  and  _34
REMARK   15  A    between atoms: _34  and  _35
REMARK   16  A    between atoms: _37  and  _39
REMARK   17  A    between atoms: _39  and  _40
REMARK   18  A    between atoms: _39  and  _42
REMARK   19  A    between atoms: _42  and  _43
REMARK   20  A    between atoms: _46  and  _48
REMARK   21  A    between atoms: _48  and  _49
REMARK   22  A    between atoms: _48  and  _51
REMARK   23  A    between atoms: _51  and  _52
REMARK   24  A    between atoms: _52  and  _53
REMARK   25  A    between atoms: _53  and  _54
REMARK   26  A    between atoms: _63  and  _65
REMARK   27  A    between atoms: _65  and  _66
REMARK   28  A    between atoms: _65  and  _68
REMARK   29  A    between atoms: _68  and  _69
REMARK   30  A    between atoms: _72  and  _74
REMARK   31  A    between atoms: _74  and  _75
REMARK   32  A    between atoms: _74  and  _77
REMARK   33  A    between atoms: _77  and  _78
REMARK   34  A    between atoms: _78  and  _79
REMARK   35  A    between atoms: _79  and  _80
REMARK   36  A    between atoms: _89  and  _91
REMARK   37  A    between atoms: _91  and  _92
REMARK   38  A    between atoms: _91  and  _94
REMARK   39  A    between atoms: _94  and  _95
REMARK   40  A    between atoms: _98  and  _100
REMARK   41  A    between atoms: _100  and  _101
REMARK   42  A    between atoms: _100  and  _103
REMARK   43  A    between atoms: _103  and  _104
REMARK   44  A    between atoms: _106  and  _108
REMARK   45  A    between atoms: _108  and  _109
REMARK   46  A    between atoms: _108  and  _111
REMARK   47  A    between atoms: _111  and  _112
REMARK   48  A    between atoms: _118  and  _120
REMARK   49  A    between atoms: _120  and  _121
REMARK   50  A    between atoms: _120  and  _123
REMARK   51  A    between atoms: _123  and  _124
REMARK   52  A    between atoms: _124  and  _125
REMARK   53  A    between atoms: _125  and  _126
REMARK   54  A    between atoms: _135  and  _137
REMARK   55  A    between atoms: _137  and  _138
REMARK   56  A    between atoms: _141  and  _143
REMARK   57  A    between atoms: _143  and  _144
REMARK   58  A    between atoms: _146  and  _148
REMARK   59  A    between atoms: _148  and  _149
REMARK   60  A    between atoms: _148  and  _151
REMARK   61  A    between atoms: _151  and  _152
REMARK   62  A    between atoms: _155  and  _157
REMARK   63  A    between atoms: _157  and  _158
REMARK   64  A    between atoms: _160  and  _162
REMARK   65  A    between atoms: _162  and  _163
REMARK   66  A    between atoms: _162  and  _165
REMARK   67  A    between atoms: _165  and  _166
REMARK   68  A    between atoms: _168  and  _170
REMARK   69  A    between atoms: _170  and  _171
REMARK   70  A    between atoms: _170  and  _173
REMARK   71  A    between atoms: _173  and  _174
REMARK   72  A    between atoms: _174  and  _175
REMARK   73  A    between atoms: _180  and  _182
REMARK   74  A    between atoms: _182  and  _183
REMARK   75  A    between atoms: _182  and  _185
REMARK   76  A    between atoms: _185  and  _186
REMARK   77  A    between atoms: _191  and  _193
REMARK   78  A    between atoms: _193  and  _194
REMARK   79  A    between atoms: _193  and  _196
REMARK   80  A    between atoms: _196  and  _197
REMARK   81  A    between atoms: _200  and  _202
REMARK   82  A    between atoms: _202  and  _203
REMARK   83  A    between atoms: _202  and  _205
REMARK   84  A    between atoms: _205  and  _206
REMARK   85  A    between atoms: _206  and  _207
REMARK   86  A    between atoms: _212  and  _214
REMARK   87  A    between atoms: _214  and  _215
REMARK   88  A    between atoms: _214  and  _217
REMARK   89  A    between atoms: _217  and  _218
REMARK   90  A    between atoms: _221  and  _223
REMARK   91  A    between atoms: _223  and  _224
REMARK   92  A    between atoms: _223  and  _226
REMARK   93  A    between atoms: _226  and  _227
REMARK   94  A    between atoms: _230  and  _232
REMARK   95  A    between atoms: _232  and  _233
REMARK   96  A    between atoms: _232  and  _235
REMARK   97  A    between atoms: _238  and  _240
REMARK   98  A    between atoms: _240  and  _241
REMARK   99  A    between atoms: _240  and  _243
REMARK  100  A    between atoms: _243  and  _244
REMARK  101  A    between atoms: _247  and  _249
REMARK  102  A    between atoms: _249  and  _250
REMARK  103  A    between atoms: _249  and  _252
REMARK  104  A    between atoms: _252  and  _253
REMARK  105  A    between atoms: _258  and  _259
REMARK  106  A    between atoms: _261  and  _263
REMARK  107  A    between atoms: _263  and  _264
REMARK  108  A    between atoms: _266  and  _268
REMARK  109  A    between atoms: _268  and  _269
REMARK  110  A    between atoms: _268  and  _271
REMARK  111  A    between atoms: _271  and  _272
REMARK  112  A    between atoms: _272  and  _273
REMARK  113  A    between atoms: _273  and  _274
REMARK  114  A    between atoms: _283  and  _285
REMARK  115  A    between atoms: _285  and  _286
REMARK  116  A    between atoms: _285  and  _288
REMARK  117  A    between atoms: _288  and  _289
REMARK  118  A    between atoms: _292  and  _294
REMARK  119  A    between atoms: _294  and  _295
REMARK  120  A    between atoms: _294  and  _297
REMARK  121  A    between atoms: _300  and  _302
REMARK  122  A    between atoms: _302  and  _303
REMARK  123  A    between atoms: _302  and  _305
REMARK  124  A    between atoms: _305  and  _306
REMARK  125  A    between atoms: _311  and  _313
REMARK  126  A    between atoms: _313  and  _314
REMARK  127  A    between atoms: _313  and  _316
REMARK  128  A    between atoms: _316  and  _317
REMARK  129  A    between atoms: _319  and  _321
REMARK  130  A    between atoms: _321  and  _322
REMARK  131  A    between atoms: _321  and  _324
REMARK  132  A    between atoms: _324  and  _325
REMARK  133  A    between atoms: _330  and  _331
REMARK  134  A    between atoms: _333  and  _335
REMARK  135  A    between atoms: _335  and  _336
REMARK  136  A    between atoms: _335  and  _338
REMARK  137  A    between atoms: _338  and  _339
REMARK  138  A    between atoms: _339  and  _340
REMARK  139  A    between atoms: _342  and  _344
REMARK  140  A    between atoms: _344  and  _345
REMARK  141  A    between atoms: _344  and  _347
REMARK  142  A    between atoms: _347  and  _348
REMARK  143  A    between atoms: _351  and  _353
REMARK  144  A    between atoms: _353  and  _354
REMARK  145  A    between atoms: _353  and  _356
REMARK  146  A    between atoms: _356  and  _357
REMARK  147  A    between atoms: _357  and  _358
REMARK  148  A    between atoms: _358  and  _359
REMARK  149  A    between atoms: _368  and  _370
REMARK  150  A    between atoms: _370  and  _371
REMARK  151  A    between atoms: _370  and  _373
REMARK  152  A    between atoms: _376  and  _378
REMARK  153  A    between atoms: _378  and  _379
REMARK  154  A    between atoms: _378  and  _381
REMARK  155  A    between atoms: _381  and  _382
REMARK  156  A    between atoms: _382  and  _383
REMARK  157  A    between atoms: _388  and  _390
REMARK  158  A    between atoms: _390  and  _391
REMARK  159  A    between atoms: _390  and  _393
REMARK  160  A    between atoms: _393  and  _394
REMARK  161  A    between atoms: _394  and  _395
REMARK  162  A    between atoms: _395  and  _396
REMARK  163  A    between atoms: _405  and  _407
REMARK  164  A    between atoms: _407  and  _408
REMARK  165  A    between atoms: _407  and  _410
REMARK  166  A    between atoms: _410  and  _411
REMARK  167  A    between atoms: _417  and  _418
REMARK  168  A    between atoms: _423  and  _425
REMARK  169  A    between atoms: _425  and  _426
REMARK  170  A    between atoms: _425  and  _428
REMARK  171  A    between atoms: _428  and  _429
REMARK  172  A    between atoms: _433  and  _434
REMARK  173  A    between atoms: _439  and  _441
REMARK  174  A    between atoms: _441  and  _442
REMARK  175  A    between atoms: _441  and  _444
REMARK  176  A    between atoms: _444  and  _445
REMARK  177  A    between atoms: _445  and  _446
REMARK  178  A    between atoms: _446  and  _447
REMARK  179  A    between atoms: _456  and  _458
REMARK  180  A    between atoms: _458  and  _459
REMARK  181  A    between atoms: _458  and  _461
REMARK  182  A    between atoms: _461  and  _462
REMARK  183  A    between atoms: _462  and  _463
REMARK  184  A    between atoms: _466  and  _468
REMARK  185  A    between atoms: _468  and  _469
REMARK  186  A    between atoms: _468  and  _471
REMARK  187  A    between atoms: _471  and  _472
REMARK  188  A    between atoms: _472  and  _473
REMARK  189  A    between atoms: _478  and  _480
REMARK  190  A    between atoms: _480  and  _481
REMARK  191  A    between atoms: _484  and  _486
REMARK  192  A    between atoms: _486  and  _487
REMARK  193  A    between atoms: _486  and  _489
REMARK  194  A    between atoms: _489  and  _490
REMARK  195  A    between atoms: _490  and  _491
REMARK  196  A    between atoms: _491  and  _492
REMARK  197  A    between atoms: _501  and  _503
REMARK  198  A    between atoms: _503  and  _504
REMARK  199  A    between atoms: _503  and  _506
REMARK  200  A    between atoms: _506  and  _507
REMARK  201  A    between atoms: _509  and  _511
REMARK  202  A    between atoms: _511  and  _512
REMARK  203  A    between atoms: _511  and  _514
REMARK  204  A    between atoms: _514  and  _515
REMARK  205  A    between atoms: _518  and  _520
REMARK  206  A    between atoms: _520  and  _521
REMARK  207  A    between atoms: _523  and  _525
REMARK  208  A    between atoms: _525  and  _526
REMARK  209  A    between atoms: _525  and  _528
REMARK  210  A    between atoms: _528  and  _529
REMARK  211  A    between atoms: _529  and  _530
REMARK  212  A    between atoms: _530  and  _531
REMARK  213  A    between atoms: _531  and  _532
REMARK  214  A    between atoms: _536  and  _538
REMARK  215  A    between atoms: _538  and  _539
REMARK  216  A    between atoms: _538  and  _541
REMARK  217  A    between atoms: _541  and  _542
REMARK  218  A    between atoms: _542  and  _543
REMARK  219  A    between atoms: _543  and  _544
REMARK  220  A    between atoms: _544  and  _545
REMARK  221  A    between atoms: _549  and  _551
REMARK  222  A    between atoms: _551  and  _552
REMARK  223  A    between atoms: _551  and  _554
REMARK  224  A    between atoms: _554  and  _555
REMARK  225  A    between atoms: _555  and  _556
REMARK  226  A    between atoms: _559  and  _561
REMARK  227  A    between atoms: _561  and  _562
REMARK  228  A    between atoms: _561  and  _564
REMARK  229  A    between atoms: _567  and  _569
REMARK  230  A    between atoms: _569  and  _570
REMARK  231  A    between atoms: _569  and  _572
REMARK  232  A    between atoms: _572  and  _573
REMARK  233  A    between atoms: _578  and  _579
REMARK                            x       y       z     vdW  Elec       q    Type
REMARK                         _______ _______ _______ _____ _____    ______ ____
ROOT
ATOM      1  C   GLY A   3      47.321  26.346  20.479  0.00  0.00    +0.243 C 
ATOM      2  O   GLY A   3      46.654  25.483  21.062  0.00  0.00    -0.273 OA
ATOM      3  N   LYS A   4      48.410  26.924  20.995  0.00  0.00    -0.297 N 
ATOM      4  H   LYS A   4      48.913  27.614  20.402  0.00  0.00    +0.150 HD
ENDROOT
BRANCH   3   5
ATOM      5  CA  LYS A   4      48.954  26.660  22.338  0.00  0.00    +0.149 C 
BRANCH   5   6
ATOM      6  C   LYS A   4      47.913  26.162  23.352  0.00  0.00    +0.241 C 
ATOM      7  N   LYS A   5      48.277  25.134  24.129  0.00  0.00    -0.298 N 
ATOM      8  H   LYS A   5      49.223  24.720  24.006  0.00  0.00    +0.150 HD
ATOM      9  O   LYS A   4      46.803  26.710  23.426  0.00  0.00    -0.273 OA
BRANCH   7  10
ATOM     10  CA  LYS A   5      47.381  24.572  25.151  0.00  0.00    +0.137 C 
BRANCH  10  11
ATOM     11  C   LYS A   5      47.919  23.263  25.768  0.00  0.00    +0.227 C 
ATOM     12  O   LYS A   5      48.587  23.283  26.821  0.00  0.00    -0.286 OA
ENDBRANCH  10  11
BRANCH  10  13
ATOM     13  CB  LYS A   5      45.980  24.323  24.557  0.00  0.00    +0.028 C 
BRANCH  13  14
ATOM     14  CG  LYS A   5      44.867  24.089  25.590  0.00  0.00    -0.000 C 
BRANCH  14  15
ATOM     15  CD  LYS A   5      44.714  25.282  26.560  0.00  0.00    -0.024 C 
BRANCH  15  16
ATOM     16  CE  LYS A   5      43.581  25.069  27.583  0.00  0.00    -0.086 C 
BRANCH  16  17
ATOM     17  NZ  LYS A   5      43.509  26.128  28.647  0.00  0.00    +0.380 N 
ATOM     18  HZ1 LYS A   5      42.724  25.914  29.295  0.00  0.00    -0.089 HD
ATOM     19  HZ2 LYS A   5      44.403  26.145  29.178  0.00  0.00    -0.089 HD
ATOM     20  HZ3 LYS A   5      43.351  27.055  28.202  0.00  0.00    -0.089 HD
ENDBRANCH  16  17
ENDBRANCH  15  16
ENDBRANCH  14  15
ENDBRANCH  13  14
ENDBRANCH  10  13
ENDBRANCH   7  10
ENDBRANCH   5   6
BRANCH   5  21
ATOM     21  CB  LYS A   4      49.622  27.944  22.882  0.00  0.00    +0.029 C 
BRANCH  21  22
ATOM     22  CG  LYS A   4      51.116  28.161  22.522  0.00  0.00    +0.000 C 
BRANCH  22  23
ATOM     23  CD  LYS A   4      51.443  28.190  21.021  0.00  0.00    -0.024 C 
BRANCH  23  24
ATOM     24  CE  LYS A   4      50.817  29.368  20.295  0.00  0.00    -0.086 C 
BRANCH  24  25
ATOM     25  NZ  LYS A   4      49.354  29.189  20.087  0.00  0.00    +0.380 N 
ATOM     26  HZ1 LYS A   4      48.883  29.091  21.009  0.00  0.00    -0.089 HD
ATOM     27  HZ2 LYS A   4      48.972  30.018  19.588  0.00  0.00    -0.089 HD
ATOM     28  HZ3 LYS A   4      49.188  28.334  19.519  0.00  0.00    -0.089 HD
ENDBRANCH  24  25
ENDBRANCH  23  24
ENDBRANCH  22  23
ENDBRANCH  21  22
ENDBRANCH   5  21
ENDBRANCH   3   5
BRANCH   1  29
ATOM     29  CA  GLY A   3      46.964  26.788  19.069  0.00  0.00    +0.176 C 
BRANCH  29  32
ATOM     30  C   LEU A   2      48.559  25.209  18.152  0.00  0.00    +0.241 C 
ATOM     31  O   LEU A   2      48.032  24.252  18.743  0.00  0.00    -0.273 OA
ATOM     32  N   GLY A   3      48.113  26.470  18.241  0.00  0.00    -0.295 N 
ATOM     33  H   GLY A   3      48.594  27.226  17.713  0.00  0.00    +0.150 HD
BRANCH  30  34
ATOM     34  CA  LEU A   2      49.803  24.989  17.295  0.00  0.00    +0.149 C 
BRANCH  34  37
ATOM     35  C   SER A   1      51.708  24.581  18.881  0.00  0.00    +0.241 C 
ATOM     36  O   SER A   1      51.793  23.364  18.735  0.00  0.00    -0.274 OA
ATOM     37  N   LEU A   2      50.846  25.370  18.248  0.00  0.00    -0.297 N 
ATOM     38  H   LEU A   2      50.922  26.386  18.456  0.00  0.00    +0.150 HD
BRANCH  35  39
ATOM     39  CA  SER A   1      52.600  25.339  19.851  0.00  0.00    +0.174 C 
BRANCH  39  40
ATOM     40  N   SER A   1      52.384  24.834  21.203  0.00  0.00    -0.236 NA
ATOM     41  H   SER A   1      51.628  25.274  21.766  0.00  0.00    +0.142 HD
ENDBRANCH  39  40
BRANCH  39  42
ATOM     42  CB  SER A   1      54.065  25.263  19.439  0.00  0.00    +0.163 C 
BRANCH  42  43
ATOM     43  OG  SER A   1      54.705  26.470  19.813  0.00  0.00    -0.380 OA
ATOM     44  H   SER A   1      54.637  26.588  20.794  0.00  0.00    +0.211 HD
ENDBRANCH  42  43
ENDBRANCH  39  42
ENDBRANCH  35  39
ENDBRANCH  34  37
BRANCH  34  45
ATOM     45  CB  LEU A   2      49.866  23.518  16.868  0.00  0.00    +0.029 C 
BRANCH  45  46
ATOM     46  CG  LEU A   2      48.910  23.296  15.685  0.00  0.00    +0.002 C 
ATOM     47  CD2 LEU A   2      48.401  21.869  15.639  0.00  0.00    +0.000 C 
ATOM     48  CD1 LEU A   2      49.646  23.648  14.393  0.00  0.00    +0.000 C 
ENDBRANCH  45  46
ENDBRANCH  34  45
ENDBRANCH  30  34
ENDBRANCH  29  32
ENDBRANCH   1  29
TORSDOF 24
REMARK  Name = ../refined-set-2016/2fzg/2fzg_pocket.pdb
REMARK  233 active torsions:
REMARK  status: ('A' for Active; 'I' for Inactive)
REMARK    1  A    between atoms: _1  and  _3
REMARK    2  A    between atoms: _3  and  _4
REMARK    3  A    between atoms: _3  and  _6
REMARK    4  A    between atoms: _6  and  _7
REMARK    5  A    between atoms: _13  and  _15
REMARK    6  A    between atoms: _15  and  _16
REMARK    7  A    between atoms: _15  and  _18
REMARK    8  A    between atoms: _18  and  _19
REMARK    9  A    between atoms: _19  and  _20
REMARK   10  A    between atoms: _23  and  _25
REMARK   11  A    between atoms: _25  and  _26
REMARK   12  A    between atoms: _29  and  _31
REMARK   13  A    between atoms: _31  and  _32
REMARK   14  A    between atoms: _31  and  _34
REMARK   15  A    between atoms: _34  and  _35
REMARK   16  A    between atoms: _37  and  _39
REMARK   17  A    between atoms: _39  and  _40
REMARK   18  A    between atoms: _39  and  _42
REMARK   19  A    between atoms: _42  and  _43
REMARK   20  A    between atoms: _46  and  _48
REMARK   21  A    between atoms: _48  and  _49
REMARK   22  A    between atoms: _48  and  _51
REMARK   23  A    between atoms: _51  and  _52
REMARK   24  A    between atoms: _52  and  _53
REMARK   25  A    between atoms: _53  and  _54
REMARK   26  A    between atoms: _63  and  _65
REMARK   27  A    between atoms: _65  and  _66
REMARK   28  A    between atoms: _65  and  _68
REMARK   29  A    between atoms: _68  and  _69
REMARK   30  A    between atoms: _72  and  _74
REMARK   31  A    between atoms: _74  and  _75
REMARK   32  A    between atoms: _74  and  _77
REMARK   33  A    between atoms: _77  and  _78
REMARK   34  A    between atoms: _78  and  _79
REMARK   35  A    between atoms: _79  and  _80
REMARK   36  A    between atoms: _89  and  _91
REMARK   37  A    between atoms: _91  and  _92
REMARK   38  A    between atoms: _91  and  _94
REMARK   39  A    between atoms: _94  and  _95
REMARK   40  A    between atoms: _98  and  _100
REMARK   41  A    between atoms: _100  and  _101
REMARK   42  A    between atoms: _100  and  _103
REMARK   43  A    between atoms: _103  and  _104
REMARK   44  A    between atoms: _106  and  _108
REMARK   45  A    between atoms: _108  and  _109
REMARK   46  A    between atoms: _108  and  _111
REMARK   47  A    between atoms: _111  and  _112
REMARK   48  A    between atoms: _118  and  _120
REMARK   49  A    between atoms: _120  and  _121
REMARK   50  A    between atoms: _120  and  _123
REMARK   51  A    between atoms: _123  and  _124
REMARK   52  A    between atoms: _124  and  _125
REMARK   53  A    between atoms: _125  and  _126
REMARK   54  A    between atoms: _135  and  _137
REMARK   55  A    between atoms: _137  and  _138
REMARK   56  A    between atoms: _141  and  _143
REMARK   57  A    between atoms: _143  and  _144
REMARK   58  A    between atoms: _146  and  _148
REMARK   59  A    between atoms: _148  and  _149
REMARK   60  A    between atoms: _148  and  _151
REMARK   61  A    between atoms: _151  and  _152
REMARK   62  A    between atoms: _155  and  _157
REMARK   63  A    between atoms: _157  and  _158
REMARK   64  A    between atoms: _160  and  _162
REMARK   65  A    between atoms: _162  and  _163
REMARK   66  A    between atoms: _162  and  _165
REMARK   67  A    between atoms: _165  and  _166
REMARK   68  A    between atoms: _168  and  _170
REMARK   69  A    between atoms: _170  and  _171
REMARK   70  A    between atoms: _170  and  _173
REMARK   71  A    between atoms: _173  and  _174
REMARK   72  A    between atoms: _174  and  _175
REMARK   73  A    between atoms: _180  and  _182
REMARK   74  A    between atoms: _182  and  _183
REMARK   75  A    between atoms: _182  and  _185
REMARK   76  A    between atoms: _185  and  _186
REMARK   77  A    between atoms: _191  and  _193
REMARK   78  A    between atoms: _193  and  _194
REMARK   79  A    between atoms: _193  and  _196
REMARK   80  A    between atoms: _196  and  _197
REMARK   81  A    between atoms: _200  and  _202
REMARK   82  A    between atoms: _202  and  _203
REMARK   83  A    between atoms: _202  and  _205
REMARK   84  A    between atoms: _205  and  _206
REMARK   85  A    between atoms: _206  and  _207
REMARK   86  A    between atoms: _212  and  _214
REMARK   87  A    between atoms: _214  and  _215
REMARK   88  A    between atoms: _214  and  _217
REMARK   89  A    between atoms: _217  and  _218
REMARK   90  A    between atoms: _221  and  _223
REMARK   91  A    between atoms: _223  and  _224
REMARK   92  A    between atoms: _223  and  _226
REMARK   93  A    between atoms: _226  and  _227
REMARK   94  A    between atoms: _230  and  _232
REMARK   95  A    between atoms: _232  and  _233
REMARK   96  A    between atoms: _232  and  _235
REMARK   97  A    between atoms: _238  and  _240
REMARK   98  A    between atoms: _240  and  _241
REMARK   99  A    between atoms: _240  and  _243
REMARK  100  A    between atoms: _243  and  _244
REMARK  101  A    between atoms: _247  and  _249
REMARK  102  A    between atoms: _249  and  _250
REMARK  103  A    between atoms: _249  and  _252
REMARK  104  A    between atoms: _252  and  _253
REMARK  105  A    between atoms: _258  and  _259
REMARK  106  A    between atoms: _261  and  _263
REMARK  107  A    between atoms: _263  and  _264
REMARK  108  A    between atoms: _266  and  _268
REMARK  109  A    between atoms: _268  and  _269
REMARK  110  A    between atoms: _268  and  _271
REMARK  111  A    between atoms: _271  and  _272
REMARK  112  A    between atoms: _272  and  _273
REMARK  113  A    between atoms: _273  and  _274
REMARK  114  A    between atoms: _283  and  _285
REMARK  115  A    between atoms: _285  and  _286
REMARK  116  A    between atoms: _285  and  _288
REMARK  117  A    between atoms: _288  and  _289
REMARK  118  A    between atoms: _292  and  _294
REMARK  119  A    between atoms: _294  and  _295
REMARK  120  A    between atoms: _294  and  _297
REMARK  121  A    between atoms: _300  and  _302
REMARK  122  A    between atoms: _302  and  _303
REMARK  123  A    between atoms: _302  and  _305
REMARK  124  A    between atoms: _305  and  _306
REMARK  125  A    between atoms: _311  and  _313
REMARK  126  A    between atoms: _313  and  _314
REMARK  127  A    between atoms: _313  and  _316
REMARK  128  A    between atoms: _316  and  _317
REMARK  129  A    between atoms: _319  and  _321
REMARK  130  A    between atoms: _321  and  _322
REMARK  131  A    between atoms: _321  and  _324
REMARK  132  A    between atoms: _324  and  _325
REMARK  133  A    between atoms: _330  and  _331
REMARK  134  A    between atoms: _333  and  _335
REMARK  135  A    between atoms: _335  and  _336
REMARK  136  A    between atoms: _335  and  _338
REMARK  137  A    between atoms: _338  and  _339
REMARK  138  A    between atoms: _339  and  _340
REMARK  139  A    between atoms: _342  and  _344
REMARK  140  A    between atoms: _344  and  _345
REMARK  141  A    between atoms: _344  and  _347
REMARK  142  A    between atoms: _347  and  _348
REMARK  143  A    between atoms: _351  and  _353
REMARK  144  A    between atoms: _353  and  _354
REMARK  145  A    between atoms: _353  and  _356
REMARK  146  A    between atoms: _356  and  _357
REMARK  147  A    between atoms: _357  and  _358
REMARK  148  A    between atoms: _358  and  _359
REMARK  149  A    between atoms: _368  and  _370
REMARK  150  A    between atoms: _370  and  _371
REMARK  151  A    between atoms: _370  and  _373
REMARK  152  A    between atoms: _376  and  _378
REMARK  153  A    between atoms: _378  and  _379
REMARK  154  A    between atoms: _378  and  _381
REMARK  155  A    between atoms: _381  and  _382
REMARK  156  A    between atoms: _382  and  _383
REMARK  157  A    between atoms: _388  and  _390
REMARK  158  A    between atoms: _390  and  _391
REMARK  159  A    between atoms: _390  and  _393
REMARK  160  A    between atoms: _393  and  _394
REMARK  161  A    between atoms: _394  and  _395
REMARK  162  A    between atoms: _395  and  _396
REMARK  163  A    between atoms: _405  and  _407
REMARK  164  A    between atoms: _407  and  _408
REMARK  165  A    between atoms: _407  and  _410
REMARK  166  A    between atoms: _410  and  _411
REMARK  167  A    between atoms: _417  and  _418
REMARK  168  A    between atoms: _423  and  _425
REMARK  169  A    between atoms: _425  and  _426
REMARK  170  A    between atoms: _425  and  _428
REMARK  171  A    between atoms: _428  and  _429
REMARK  172  A    between atoms: _433  and  _434
REMARK  173  A    between atoms: _439  and  _441
REMARK  174  A    between atoms: _441  and  _442
REMARK  175  A    between atoms: _441  and  _444
REMARK  176  A    between atoms: _444  and  _445
REMARK  177  A    between atoms: _445  and  _446
REMARK  178  A    between atoms: _446  and  _447
REMARK  179  A    between atoms: _456  and  _458
REMARK  180  A    between atoms: _458  and  _459
REMARK  181  A    between atoms: _458  and  _461
REMARK  182  A    between atoms: _461  and  _462
REMARK  183  A    between atoms: _462  and  _463
REMARK  184  A    between atoms: _466  and  _468
REMARK  185  A    between atoms: _468  and  _469
REMARK  186  A    between atoms: _468  and  _471
REMARK  187  A    between atoms: _471  and  _472
REMARK  188  A    between atoms: _472  and  _473
REMARK  189  A    between atoms: _478  and  _480
REMARK  190  A    between atoms: _480  and  _481
REMARK  191  A    between atoms: _484  and  _486
REMARK  192  A    between atoms: _486  and  _487
REMARK  193  A    between atoms: _486  and  _489
REMARK  194  A    between atoms: _489  and  _490
REMARK  195  A    between atoms: _490  and  _491
REMARK  196  A    between atoms: _491  and  _492
REMARK  197  A    between atoms: _501  and  _503
REMARK  198  A    between atoms: _503  and  _504
REMARK  199  A    between atoms: _503  and  _506
REMARK  200  A    between atoms: _506  and  _507
REMARK  201  A    between atoms: _509  and  _511
REMARK  202  A    between atoms: _511  and  _512
REMARK  203  A    between atoms: _511  and  _514
REMARK  204  A    between atoms: _514  and  _515
REMARK  205  A    between atoms: _518  and  _520
REMARK  206  A    between atoms: _520  and  _521
REMARK  207  A    between atoms: _523  and  _525
REMARK  208  A    between atoms: _525  and  _526
REMARK  209  A    between atoms: _525  and  _528
REMARK  210  A    between atoms: _528  and  _529
REMARK  211  A    between atoms: _529  and  _530
REMARK  212  A    between atoms: _530  and  _531
REMARK  213  A    between atoms: _531  and  _532
REMARK  214  A    between atoms: _536  and  _538
REMARK  215  A    between atoms: _538  and  _539
REMARK  216  A    between atoms: _538  and  _541
REMARK  217  A    between atoms: _541  and  _542
REMARK  218  A    between atoms: _542  and  _543
REMARK  219  A    between atoms: _543  and  _544
REMARK  220  A    between atoms: _544  and  _545
REMARK  221  A    between atoms: _549  and  _551
REMARK  222  A    between atoms: _551  and  _552
REMARK  223  A    between atoms: _551  and  _554
REMARK  224  A    between atoms: _554  and  _555
REMARK  225  A    between atoms: _555  and  _556
REMARK  226  A    between atoms: _559  and  _561
REMARK  227  A    between atoms: _561  and  _562
REMARK  228  A    between atoms: _561  and  _564
REMARK  229  A    between atoms: _567  and  _569
REMARK  230  A    between atoms: _569  and  _570
REMARK  231  A    between atoms: _569  and  _572
REMARK  232  A    between atoms: _572  and  _573
REMARK  233  A    between atoms: _578  and  _579
REMARK                            x       y       z     vdW  Elec       q    Type
REMARK                         _______ _______ _______ _____ _____    ______ ____
ROOT
ATOM      1  CA  GLU A   1      47.320  18.952  22.440  0.00  0.00    +0.134 C 
ENDROOT
BRANCH   1   2
ATOM      2  N   GLU A   1      47.539  20.013  23.386  0.00  0.00    -0.239 NA
ATOM      3  H   GLU A   1      47.484  21.010  23.094  0.00  0.00    +0.142 HD
ENDBRANCH   1   2
BRANCH   1   4
ATOM      4  C   GLU A   1      48.573  18.111  22.206  0.00  0.00    +0.224 C 
ATOM      5  O   GLU A   1      49.690  18.504  22.512  0.00  0.00    -0.287 OA
ENDBRANCH   1   4
BRANCH   1   6
ATOM      6  CB  GLU A   1      46.782  19.503  21.121  0.00  0.00    +0.037 C 
BRANCH   6   7
ATOM      7  CG  GLU A   1      47.694  20.418  20.359  0.00  0.00    +0.116 C 
BRANCH   7   8
ATOM      8  CD  GLU A   1      47.128  20.758  18.965  0.00  0.00    +0.365 C 
ATOM      9  OE2 GLU A   1      46.037  20.256  18.586  0.00  0.00    -0.246 OA
ATOM     10  OE1 GLU A   1      47.778  21.533  18.234  0.00  0.00    -0.246 OA
ENDBRANCH   7   8
ENDBRANCH   6   7
ENDBRANCH   1   6
TORSDOF 5
REMARK  Name = ../refined-set-2016/2fzg/2fzg_pocket.pdb
REMARK  233 active torsions:
REMARK  status: ('A' for Active; 'I' for Inactive)
REMARK    1  A    between atoms: _1  and  _3
REMARK    2  A    between atoms: _3  and  _4
REMARK    3  A    between atoms: _3  and  _6
REMARK    4  A    between atoms: _6  and  _7
REMARK    5  A    between atoms: _13  and  _15
REMARK    6  A    between atoms: _15  and  _16
REMARK    7  A    between atoms: _15  and  _18
REMARK    8  A    between atoms: _18  and  _19
REMARK    9  A    between atoms: _19  and  _20
REMARK   10  A    between atoms: _23  and  _25
REMARK   11  A    between atoms: _25  and  _26
REMARK   12  A    between atoms: _29  and  _31
REMARK   13  A    between atoms: _31  and  _32
REMARK   14  A    between atoms: _31  and  _34
REMARK   15  A    between atoms: _34  and  _35
REMARK   16  A    between atoms: _37  and  _39
REMARK   17  A    between atoms: _39  and  _40
REMARK   18  A    between atoms: _39  and  _42
REMARK   19  A    between atoms: _42  and  _43
REMARK   20  A    between atoms: _46  and  _48
REMARK   21  A    between atoms: _48  and  _49
REMARK   22  A    between atoms: _48  and  _51
REMARK   23  A    between atoms: _51  and  _52
REMARK   24  A    between atoms: _52  and  _53
REMARK   25  A    between atoms: _53  and  _54
REMARK   26  A    between atoms: _63  and  _65
REMARK   27  A    between atoms: _65  and  _66
REMARK   28  A    between atoms: _65  and  _68
REMARK   29  A    between atoms: _68  and  _69
REMARK   30  A    between atoms: _72  and  _74
REMARK   31  A    between atoms: _74  and  _75
REMARK   32  A    between atoms: _74  and  _77
REMARK   33  A    between atoms: _77  and  _78
REMARK   34  A    between atoms: _78  and  _79
REMARK   35  A    between atoms: _79  and  _80
REMARK   36  A    between atoms: _89  and  _91
REMARK   37  A    between atoms: _91  and  _92
REMARK   38  A    between atoms: _91  and  _94
REMARK   39  A    between atoms: _94  and  _95
REMARK   40  A    between atoms: _98  and  _100
REMARK   41  A    between atoms: _100  and  _101
REMARK   42  A    between atoms: _100  and  _103
REMARK   43  A    between atoms: _103  and  _104
REMARK   44  A    between atoms: _106  and  _108
REMARK   45  A    between atoms: _108  and  _109
REMARK   46  A    between atoms: _108  and  _111
REMARK   47  A    between atoms: _111  and  _112
REMARK   48  A    between atoms: _118  and  _120
REMARK   49  A    between atoms: _120  and  _121
REMARK   50  A    between atoms: _120  and  _123
REMARK   51  A    between atoms: _123  and  _124
REMARK   52  A    between atoms: _124  and  _125
REMARK   53  A    between atoms: _125  and  _126
REMARK   54  A    between atoms: _135  and  _137
REMARK   55  A    between atoms: _137  and  _138
REMARK   56  A    between atoms: _141  and  _143
REMARK   57  A    between atoms: _143  and  _144
REMARK   58  A    between atoms: _146  and  _148
REMARK   59  A    between atoms: _148  and  _149
REMARK   60  A    between atoms: _148  and  _151
REMARK   61  A    between atoms: _151  and  _152
REMARK   62  A    between atoms: _155  and  _157
REMARK   63  A    between atoms: _157  and  _158
REMARK   64  A    between atoms: _160  and  _162
REMARK   65  A    between atoms: _162  and  _163
REMARK   66  A    between atoms: _162  and  _165
REMARK   67  A    between atoms: _165  and  _166
REMARK   68  A    between atoms: _168  and  _170
REMARK   69  A    between atoms: _170  and  _171
REMARK   70  A    between atoms: _170  and  _173
REMARK   71  A    between atoms: _173  and  _174
REMARK   72  A    between atoms: _174  and  _175
REMARK   73  A    between atoms: _180  and  _182
REMARK   74  A    between atoms: _182  and  _183
REMARK   75  A    between atoms: _182  and  _185
REMARK   76  A    between atoms: _185  and  _186
REMARK   77  A    between atoms: _191  and  _193
REMARK   78  A    between atoms: _193  and  _194
REMARK   79  A    between atoms: _193  and  _196
REMARK   80  A    between atoms: _196  and  _197
REMARK   81  A    between atoms: _200  and  _202
REMARK   82  A    between atoms: _202  and  _203
REMARK   83  A    between atoms: _202  and  _205
REMARK   84  A    between atoms: _205  and  _206
REMARK   85  A    between atoms: _206  and  _207
REMARK   86  A    between atoms: _212  and  _214
REMARK   87  A    between atoms: _214  and  _215
REMARK   88  A    between atoms: _214  and  _217
REMARK   89  A    between atoms: _217  and  _218
REMARK   90  A    between atoms: _221  and  _223
REMARK   91  A    between atoms: _223  and  _224
REMARK   92  A    between atoms: _223  and  _226
REMARK   93  A    between atoms: _226  and  _227
REMARK   94  A    between atoms: _230  and  _232
REMARK   95  A    between atoms: _232  and  _233
REMARK   96  A    between atoms: _232  and  _235
REMARK   97  A    between atoms: _238  and  _240
REMARK   98  A    between atoms: _240  and  _241
REMARK   99  A    between atoms: _240  and  _243
REMARK  100  A    between atoms: _243  and  _244
REMARK  101  A    between atoms: _247  and  _249
REMARK  102  A    between atoms: _249  and  _250
REMARK  103  A    between atoms: _249  and  _252
REMARK  104  A    between atoms: _252  and  _253
REMARK  105  A    between atoms: _258  and  _259
REMARK  106  A    between atoms: _261  and  _263
REMARK  107  A    between atoms: _263  and  _264
REMARK  108  A    between atoms: _266  and  _268
REMARK  109  A    between atoms: _268  and  _269
REMARK  110  A    between atoms: _268  and  _271
REMARK  111  A    between atoms: _271  and  _272
REMARK  112  A    between atoms: _272  and  _273
REMARK  113  A    between atoms: _273  and  _274
REMARK  114  A    between atoms: _283  and  _285
REMARK  115  A    between atoms: _285  and  _286
REMARK  116  A    between atoms: _285  and  _288
REMARK  117  A    between atoms: _288  and  _289
REMARK  118  A    between atoms: _292  and  _294
REMARK  119  A    between atoms: _294  and  _295
REMARK  120  A    between atoms: _294  and  _297
REMARK  121  A    between atoms: _300  and  _302
REMARK  122  A    between atoms: _302  and  _303
REMARK  123  A    between atoms: _302  and  _305
REMARK  124  A    between atoms: _305  and  _306
REMARK  125  A    between atoms: _311  and  _313
REMARK  126  A    between atoms: _313  and  _314
REMARK  127  A    between atoms: _313  and  _316
REMARK  128  A    between atoms: _316  and  _317
REMARK  129  A    between atoms: _319  and  _321
REMARK  130  A    between atoms: _321  and  _322
REMARK  131  A    between atoms: _321  and  _324
REMARK  132  A    between atoms: _324  and  _325
REMARK  133  A    between atoms: _330  and  _331
REMARK  134  A    between atoms: _333  and  _335
REMARK  135  A    between atoms: _335  and  _336
REMARK  136  A    between atoms: _335  and  _338
REMARK  137  A    between atoms: _338  and  _339
REMARK  138  A    between atoms: _339  and  _340
REMARK  139  A    between atoms: _342  and  _344
REMARK  140  A    between atoms: _344  and  _345
REMARK  141  A    between atoms: _344  and  _347
REMARK  142  A    between atoms: _347  and  _348
REMARK  143  A    between atoms: _351  and  _353
REMARK  144  A    between atoms: _353  and  _354
REMARK  145  A    between atoms: _353  and  _356
REMARK  146  A    between atoms: _356  and  _357
REMARK  147  A    between atoms: _357  and  _358
REMARK  148  A    between atoms: _358  and  _359
REMARK  149  A    between atoms: _368  and  _370
REMARK  150  A    between atoms: _370  and  _371
REMARK  151  A    between atoms: _370  and  _373
REMARK  152  A    between atoms: _376  and  _378
REMARK  153  A    between atoms: _378  and  _379
REMARK  154  A    between atoms: _378  and  _381
REMARK  155  A    between atoms: _381  and  _382
REMARK  156  A    between atoms: _382  and  _383
REMARK  157  A    between atoms: _388  and  _390
REMARK  158  A    between atoms: _390  and  _391
REMARK  159  A    between atoms: _390  and  _393
REMARK  160  A    between atoms: _393  and  _394
REMARK  161  A    between atoms: _394  and  _395
REMARK  162  A    between atoms: _395  and  _396
REMARK  163  A    between atoms: _405  and  _407
REMARK  164  A    between atoms: _407  and  _408
REMARK  165  A    between atoms: _407  and  _410
REMARK  166  A    between atoms: _410  and  _411
REMARK  167  A    between atoms: _417  and  _418
REMARK  168  A    between atoms: _423  and  _425
REMARK  169  A    between atoms: _425  and  _426
REMARK  170  A    between atoms: _425  and  _428
REMARK  171  A    between atoms: _428  and  _429
REMARK  172  A    between atoms: _433  and  _434
REMARK  173  A    between atoms: _439  and  _441
REMARK  174  A    between atoms: _441  and  _442
REMARK  175  A    between atoms: _441  and  _444
REMARK  176  A    between atoms: _444  and  _445
REMARK  177  A    between atoms: _445  and  _446
REMARK  178  A    between atoms: _446  and  _447
REMARK  179  A    between atoms: _456  and  _458
REMARK  180  A    between atoms: _458  and  _459
REMARK  181  A    between atoms: _458  and  _461
REMARK  182  A    between atoms: _461  and  _462
REMARK  183  A    between atoms: _462  and  _463
REMARK  184  A    between atoms: _466  and  _468
REMARK  185  A    between atoms: _468  and  _469
REMARK  186  A    between atoms: _468  and  _471
REMARK  187  A    between atoms: _471  and  _472
REMARK  188  A    between atoms: _472  and  _473
REMARK  189  A    between atoms: _478  and  _480
REMARK  190  A    between atoms: _480  and  _481
REMARK  191  A    between atoms: _484  and  _486
REMARK  192  A    between atoms: _486  and  _487
REMARK  193  A    between atoms: _486  and  _489
REMARK  194  A    between atoms: _489  and  _490
REMARK  195  A    between atoms: _490  and  _491
REMARK  196  A    between atoms: _491  and  _492
REMARK  197  A    between atoms: _501  and  _503
REMARK  198  A    between atoms: _503  and  _504
REMARK  199  A    between atoms: _503  and  _506
REMARK  200  A    between atoms: _506  and  _507
REMARK  201  A    between atoms: _509  and  _511
REMARK  202  A    between atoms: _511  and  _512
REMARK  203  A    between atoms: _511  and  _514
REMARK  204  A    between atoms: _514  and  _515
REMARK  205  A    between atoms: _518  and  _520
REMARK  206  A    between atoms: _520  and  _521
REMARK  207  A    between atoms: _523  and  _525
REMARK  208  A    between atoms: _525  and  _526
REMARK  209  A    between atoms: _525  and  _528
REMARK  210  A    between atoms: _528  and  _529
REMARK  211  A    between atoms: _529  and  _530
REMARK  212  A    between atoms: _530  and  _531
REMARK  213  A    between atoms: _531  and  _532
REMARK  214  A    between atoms: _536  and  _538
REMARK  215  A    between atoms: _538  and  _539
REMARK  216  A    between atoms: _538  and  _541
REMARK  217  A    between atoms: _541  and  _542
REMARK  218  A    between atoms: _542  and  _543
REMARK  219  A    between atoms: _543  and  _544
REMARK  220  A    between atoms: _544  and  _545
REMARK  221  A    between atoms: _549  and  _551
REMARK  222  A    between atoms: _551  and  _552
REMARK  223  A    between atoms: _551  and  _554
REMARK  224  A    between atoms: _554  and  _555
REMARK  225  A    between atoms: _555  and  _556
REMARK  226  A    between atoms: _559  and  _561
REMARK  227  A    between atoms: _561  and  _562
REMARK  228  A    between atoms: _561  and  _564
REMARK  229  A    between atoms: _567  and  _569
REMARK  230  A    between atoms: _569  and  _570
REMARK  231  A    between atoms: _569  and  _572
REMARK  232  A    between atoms: _572  and  _573
REMARK  233  A    between atoms: _578  and  _579
REMARK                            x       y       z     vdW  Elec       q    Type
REMARK                         _______ _______ _______ _____ _____    ______ ____
ROOT
ATOM      1  CA  VAL A   1      47.396  19.864  11.207  0.00  0.00    +0.133 C 
ENDROOT
BRANCH   1   2
ATOM      2  CB  VAL A   1      47.042  20.867  12.354  0.00  0.00    +0.023 C 
ATOM      3  CG2 VAL A   1      45.764  20.403  13.095  0.00  0.00    +0.002 C 
ATOM      4  CG1 VAL A   1      46.886  22.291  11.791  0.00  0.00    +0.002 C 
ENDBRANCH   1   2
BRANCH   1   5
ATOM      5  N   VAL A   1      47.809  18.555  11.764  0.00  0.00    -0.239 NA
ATOM      6  H   VAL A   1      47.978  18.467  12.786  0.00  0.00    +0.142 HD
ENDBRANCH   1   5
BRANCH   1   7
ATOM      7  C   VAL A   1      48.433  20.514  10.274  0.00  0.00    +0.224 C 
ATOM      8  O   VAL A   1      48.147  20.806   9.121  0.00  0.00    -0.287 OA
ENDBRANCH   1   7
TORSDOF 3
REMARK  Name = ../refined-set-2016/2fzg/2fzg_pocket.pdb
REMARK  233 active torsions:
REMARK  status: ('A' for Active; 'I' for Inactive)
REMARK    1  A    between atoms: _1  and  _3
REMARK    2  A    between atoms: _3  and  _4
REMARK    3  A    between atoms: _3  and  _6
REMARK    4  A    between atoms: _6  and  _7
REMARK    5  A    between atoms: _13  and  _15
REMARK    6  A    between atoms: _15  and  _16
REMARK    7  A    between atoms: _15  and  _18
REMARK    8  A    between atoms: _18  and  _19
REMARK    9  A    between atoms: _19  and  _20
REMARK   10  A    between atoms: _23  and  _25
REMARK   11  A    between atoms: _25  and  _26
REMARK   12  A    between atoms: _29  and  _31
REMARK   13  A    between atoms: _31  and  _32
REMARK   14  A    between atoms: _31  and  _34
REMARK   15  A    between atoms: _34  and  _35
REMARK   16  A    between atoms: _37  and  _39
REMARK   17  A    between atoms: _39  and  _40
REMARK   18  A    between atoms: _39  and  _42
REMARK   19  A    between atoms: _42  and  _43
REMARK   20  A    between atoms: _46  and  _48
REMARK   21  A    between atoms: _48  and  _49
REMARK   22  A    between atoms: _48  and  _51
REMARK   23  A    between atoms: _51  and  _52
REMARK   24  A    between atoms: _52  and  _53
REMARK   25  A    between atoms: _53  and  _54
REMARK   26  A    between atoms: _63  and  _65
REMARK   27  A    between atoms: _65  and  _66
REMARK   28  A    between atoms: _65  and  _68
REMARK   29  A    between atoms: _68  and  _69
REMARK   30  A    between atoms: _72  and  _74
REMARK   31  A    between atoms: _74  and  _75
REMARK   32  A    between atoms: _74  and  _77
REMARK   33  A    between atoms: _77  and  _78
REMARK   34  A    between atoms: _78  and  _79
REMARK   35  A    between atoms: _79  and  _80
REMARK   36  A    between atoms: _89  and  _91
REMARK   37  A    between atoms: _91  and  _92
REMARK   38  A    between atoms: _91  and  _94
REMARK   39  A    between atoms: _94  and  _95
REMARK   40  A    between atoms: _98  and  _100
REMARK   41  A    between atoms: _100  and  _101
REMARK   42  A    between atoms: _100  and  _103
REMARK   43  A    between atoms: _103  and  _104
REMARK   44  A    between atoms: _106  and  _108
REMARK   45  A    between atoms: _108  and  _109
REMARK   46  A    between atoms: _108  and  _111
REMARK   47  A    between atoms: _111  and  _112
REMARK   48  A    between atoms: _118  and  _120
REMARK   49  A    between atoms: _120  and  _121
REMARK   50  A    between atoms: _120  and  _123
REMARK   51  A    between atoms: _123  and  _124
REMARK   52  A    between atoms: _124  and  _125
REMARK   53  A    between atoms: _125  and  _126
REMARK   54  A    between atoms: _135  and  _137
REMARK   55  A    between atoms: _137  and  _138
REMARK   56  A    between atoms: _141  and  _143
REMARK   57  A    between atoms: _143  and  _144
REMARK   58  A    between atoms: _146  and  _148
REMARK   59  A    between atoms: _148  and  _149
REMARK   60  A    between atoms: _148  and  _151
REMARK   61  A    between atoms: _151  and  _152
REMARK   62  A    between atoms: _155  and  _157
REMARK   63  A    between atoms: _157  and  _158
REMARK   64  A    between atoms: _160  and  _162
REMARK   65  A    between atoms: _162  and  _163
REMARK   66  A    between atoms: _162  and  _165
REMARK   67  A    between atoms: _165  and  _166
REMARK   68  A    between atoms: _168  and  _170
REMARK   69  A    between atoms: _170  and  _171
REMARK   70  A    between atoms: _170  and  _173
REMARK   71  A    between atoms: _173  and  _174
REMARK   72  A    between atoms: _174  and  _175
REMARK   73  A    between atoms: _180  and  _182
REMARK   74  A    between atoms: _182  and  _183
REMARK   75  A    between atoms: _182  and  _185
REMARK   76  A    between atoms: _185  and  _186
REMARK   77  A    between atoms: _191  and  _193
REMARK   78  A    between atoms: _193  and  _194
REMARK   79  A    between atoms: _193  and  _196
REMARK   80  A    between atoms: _196  and  _197
REMARK   81  A    between atoms: _200  and  _202
REMARK   82  A    between atoms: _202  and  _203
REMARK   83  A    between atoms: _202  and  _205
REMARK   84  A    between atoms: _205  and  _206
REMARK   85  A    between atoms: _206  and  _207
REMARK   86  A    between atoms: _212  and  _214
REMARK   87  A    between atoms: _214  and  _215
REMARK   88  A    between atoms: _214  and  _217
REMARK   89  A    between atoms: _217  and  _218
REMARK   90  A    between atoms: _221  and  _223
REMARK   91  A    between atoms: _223  and  _224
REMARK   92  A    between atoms: _223  and  _226
REMARK   93  A    between atoms: _226  and  _227
REMARK   94  A    between atoms: _230  and  _232
REMARK   95  A    between atoms: _232  and  _233
REMARK   96  A    between atoms: _232  and  _235
REMARK   97  A    between atoms: _238  and  _240
REMARK   98  A    between atoms: _240  and  _241
REMARK   99  A    between atoms: _240  and  _243
REMARK  100  A    between atoms: _243  and  _244
REMARK  101  A    between atoms: _247  and  _249
REMARK  102  A    between atoms: _249  and  _250
REMARK  103  A    between atoms: _249  and  _252
REMARK  104  A    between atoms: _252  and  _253
REMARK  105  A    between atoms: _258  and  _259
REMARK  106  A    between atoms: _261  and  _263
REMARK  107  A    between atoms: _263  and  _264
REMARK  108  A    between atoms: _266  and  _268
REMARK  109  A    between atoms: _268  and  _269
REMARK  110  A    between atoms: _268  and  _271
REMARK  111  A    between atoms: _271  and  _272
REMARK  112  A    between atoms: _272  and  _273
REMARK  113  A    between atoms: _273  and  _274
REMARK  114  A    between atoms: _283  and  _285
REMARK  115  A    between atoms: _285  and  _286
REMARK  116  A    between atoms: _285  and  _288
REMARK  117  A    between atoms: _288  and  _289
REMARK  118  A    between atoms: _292  and  _294
REMARK  119  A    between atoms: _294  and  _295
REMARK  120  A    between atoms: _294  and  _297
REMARK  121  A    between atoms: _300  and  _302
REMARK  122  A    between atoms: _302  and  _303
REMARK  123  A    between atoms: _302  and  _305
REMARK  124  A    between atoms: _305  and  _306
REMARK  125  A    between atoms: _311  and  _313
REMARK  126  A    between atoms: _313  and  _314
REMARK  127  A    between atoms: _313  and  _316
REMARK  128  A    between atoms: _316  and  _317
REMARK  129  A    between atoms: _319  and  _321
REMARK  130  A    between atoms: _321  and  _322
REMARK  131  A    between atoms: _321  and  _324
REMARK  132  A    between atoms: _324  and  _325
REMARK  133  A    between atoms: _330  and  _331
REMARK  134  A    between atoms: _333  and  _335
REMARK  135  A    between atoms: _335  and  _336
REMARK  136  A    between atoms: _335  and  _338
REMARK  137  A    between atoms: _338  and  _339
REMARK  138  A    between atoms: _339  and  _340
REMARK  139  A    between atoms: _342  and  _344
REMARK  140  A    between atoms: _344  and  _345
REMARK  141  A    between atoms: _344  and  _347
REMARK  142  A    between atoms: _347  and  _348
REMARK  143  A    between atoms: _351  and  _353
REMARK  144  A    between atoms: _353  and  _354
REMARK  145  A    between atoms: _353  and  _356
REMARK  146  A    between atoms: _356  and  _357
REMARK  147  A    between atoms: _357  and  _358
REMARK  148  A    between atoms: _358  and  _359
REMARK  149  A    between atoms: _368  and  _370
REMARK  150  A    between atoms: _370  and  _371
REMARK  151  A    between atoms: _370  and  _373
REMARK  152  A    between atoms: _376  and  _378
REMARK  153  A    between atoms: _378  and  _379
REMARK  154  A    between atoms: _378  and  _381
REMARK  155  A    between atoms: _381  and  _382
REMARK  156  A    between atoms: _382  and  _383
REMARK  157  A    between atoms: _388  and  _390
REMARK  158  A    between atoms: _390  and  _391
REMARK  159  A    between atoms: _390  and  _393
REMARK  160  A    between atoms: _393  and  _394
REMARK  161  A    between atoms: _394  and  _395
REMARK  162  A    between atoms: _395  and  _396
REMARK  163  A    between atoms: _405  and  _407
REMARK  164  A    between atoms: _407  and  _408
REMARK  165  A    between atoms: _407  and  _410
REMARK  166  A    between atoms: _410  and  _411
REMARK  167  A    between atoms: _417  and  _418
REMARK  168  A    between atoms: _423  and  _425
REMARK  169  A    between atoms: _425  and  _426
REMARK  170  A    between atoms: _425  and  _428
REMARK  171  A    between atoms: _428  and  _429
REMARK  172  A    between atoms: _433  and  _434
REMARK  173  A    between atoms: _439  and  _441
REMARK  174  A    between atoms: _441  and  _442
REMARK  175  A    between atoms: _441  and  _444
REMARK  176  A    between atoms: _444  and  _445
REMARK  177  A    between atoms: _445  and  _446
REMARK  178  A    between atoms: _446  and  _447
REMARK  179  A    between atoms: _456  and  _458
REMARK  180  A    between atoms: _458  and  _459
REMARK  181  A    between atoms: _458  and  _461
REMARK  182  A    between atoms: _461  and  _462
REMARK  183  A    between atoms: _462  and  _463
REMARK  184  A    between atoms: _466  and  _468
REMARK  185  A    between atoms: _468  and  _469
REMARK  186  A    between atoms: _468  and  _471
REMARK  187  A    between atoms: _471  and  _472
REMARK  188  A    between atoms: _472  and  _473
REMARK  189  A    between atoms: _478  and  _480
REMARK  190  A    between atoms: _480  and  _481
REMARK  191  A    between atoms: _484  and  _486
REMARK  192  A    between atoms: _486  and  _487
REMARK  193  A    between atoms: _486  and  _489
REMARK  194  A    between atoms: _489  and  _490
REMARK  195  A    between atoms: _490  and  _491
REMARK  196  A    between atoms: _491  and  _492
REMARK  197  A    between atoms: _501  and  _503
REMARK  198  A    between atoms: _503  and  _504
REMARK  199  A    between atoms: _503  and  _506
REMARK  200  A    between atoms: _506  and  _507
REMARK  201  A    between atoms: _509  and  _511
REMARK  202  A    between atoms: _511  and  _512
REMARK  203  A    between atoms: _511  and  _514
REMARK  204  A    between atoms: _514  and  _515
REMARK  205  A    between atoms: _518  and  _520
REMARK  206  A    between atoms: _520  and  _521
REMARK  207  A    between atoms: _523  and  _525
REMARK  208  A    between atoms: _525  and  _526
REMARK  209  A    between atoms: _525  and  _528
REMARK  210  A    between atoms: _528  and  _529
REMARK  211  A    between atoms: _529  and  _530
REMARK  212  A    between atoms: _530  and  _531
REMARK  213  A    between atoms: _531  and  _532
REMARK  214  A    between atoms: _536  and  _538
REMARK  215  A    between atoms: _538  and  _539
REMARK  216  A    between atoms: _538  and  _541
REMARK  217  A    between atoms: _541  and  _542
REMARK  218  A    between atoms: _542  and  _543
REMARK  219  A    between atoms: _543  and  _544
REMARK  220  A    between atoms: _544  and  _545
REMARK  221  A    between atoms: _549  and  _551
REMARK  222  A    between atoms: _551  and  _552
REMARK  223  A    between atoms: _551  and  _554
REMARK  224  A    between atoms: _554  and  _555
REMARK  225  A    between atoms: _555  and  _556
REMARK  226  A    between atoms: _559  and  _561
REMARK  227  A    between atoms: _561  and  _562
REMARK  228  A    between atoms: _561  and  _564
REMARK  229  A    between atoms: _567  and  _569
REMARK  230  A    between atoms: _569  and  _570
REMARK  231  A    between atoms: _569  and  _572
REMARK  232  A    between atoms: _572  and  _573
REMARK  233  A    between atoms: _578  and  _579
REMARK                            x       y       z     vdW  Elec       q    Type
REMARK                         _______ _______ _______ _____ _____    ______ ____
ROOT
ATOM      1  CG  TYR A   1      49.089  24.330   7.545  0.00  0.00    -0.020 A 
ATOM      2  CD2 TYR A   1      49.571  24.943   8.725  0.00  0.00    -0.001 A 
ATOM      3  CE2 TYR A   1      48.712  25.247   9.784  0.00  0.00    +0.036 A 
ATOM      4  CZ  TYR A   1      47.347  24.950   9.674  0.00  0.00    +0.134 A 
ATOM      5  CE1 TYR A   1      46.847  24.328   8.523  0.00  0.00    +0.036 A 
ATOM      6  CD1 TYR A   1      47.723  24.017   7.475  0.00  0.00    -0.001 A 
ENDROOT
BRANCH   4   7
ATOM      7  OH  TYR A   1      46.497  25.327  10.691  0.00  0.00    -0.506 OA
ATOM      8  HH  TYR A   1      46.530  26.311  10.799  0.00  0.00    +0.292 HD
ENDBRANCH   4   7
BRANCH   1   9
ATOM      9  CB  TYR A   1      50.005  24.152   6.351  0.00  0.00    +0.051 C 
BRANCH   9  10
ATOM     10  CA  TYR A   1      49.644  23.128   5.248  0.00  0.00    +0.137 C 
BRANCH  10  11
ATOM     11  N   TYR A   1      49.214  21.837   5.774  0.00  0.00    -0.239 NA
ATOM     12  H   TYR A   1      49.702  21.417   6.591  0.00  0.00    +0.142 HD
ENDBRANCH  10  11
BRANCH  10  13
ATOM     13  C   TYR A   1      50.892  23.066   4.400  0.00  0.00    +0.224 C 
ATOM     14  O   TYR A   1      51.022  23.802   3.418  0.00  0.00    -0.287 OA
ENDBRANCH  10  13
ENDBRANCH   9  10
ENDBRANCH   1   9
TORSDOF 5
REMARK  Name = ../refined-set-2016/2fzg/2fzg_pocket.pdb
REMARK  233 active torsions:
REMARK  status: ('A' for Active; 'I' for Inactive)
REMARK    1  A    between atoms: _1  and  _3
REMARK    2  A    between atoms: _3  and  _4
REMARK    3  A    between atoms: _3  and  _6
REMARK    4  A    between atoms: _6  and  _7
REMARK    5  A    between atoms: _13  and  _15
REMARK    6  A    between atoms: _15  and  _16
REMARK    7  A    between atoms: _15  and  _18
REMARK    8  A    between atoms: _18  and  _19
REMARK    9  A    between atoms: _19  and  _20
REMARK   10  A    between atoms: _23  and  _25
REMARK   11  A    between atoms: _25  and  _26
REMARK   12  A    between atoms: _29  and  _31
REMARK   13  A    between atoms: _31  and  _32
REMARK   14  A    between atoms: _31  and  _34
REMARK   15  A    between atoms: _34  and  _35
REMARK   16  A    between atoms: _37  and  _39
REMARK   17  A    between atoms: _39  and  _40
REMARK   18  A    between atoms: _39  and  _42
REMARK   19  A    between atoms: _42  and  _43
REMARK   20  A    between atoms: _46  and  _48
REMARK   21  A    between atoms: _48  and  _49
REMARK   22  A    between atoms: _48  and  _51
REMARK   23  A    between atoms: _51  and  _52
REMARK   24  A    between atoms: _52  and  _53
REMARK   25  A    between atoms: _53  and  _54
REMARK   26  A    between atoms: _63  and  _65
REMARK   27  A    between atoms: _65  and  _66
REMARK   28  A    between atoms: _65  and  _68
REMARK   29  A    between atoms: _68  and  _69
REMARK   30  A    between atoms: _72  and  _74
REMARK   31  A    between atoms: _74  and  _75
REMARK   32  A    between atoms: _74  and  _77
REMARK   33  A    between atoms: _77  and  _78
REMARK   34  A    between atoms: _78  and  _79
REMARK   35  A    between atoms: _79  and  _80
REMARK   36  A    between atoms: _89  and  _91
REMARK   37  A    between atoms: _91  and  _92
REMARK   38  A    between atoms: _91  and  _94
REMARK   39  A    between atoms: _94  and  _95
REMARK   40  A    between atoms: _98  and  _100
REMARK   41  A    between atoms: _100  and  _101
REMARK   42  A    between atoms: _100  and  _103
REMARK   43  A    between atoms: _103  and  _104
REMARK   44  A    between atoms: _106  and  _108
REMARK   45  A    between atoms: _108  and  _109
REMARK   46  A    between atoms: _108  and  _111
REMARK   47  A    between atoms: _111  and  _112
REMARK   48  A    between atoms: _118  and  _120
REMARK   49  A    between atoms: _120  and  _121
REMARK   50  A    between atoms: _120  and  _123
REMARK   51  A    between atoms: _123  and  _124
REMARK   52  A    between atoms: _124  and  _125
REMARK   53  A    between atoms: _125  and  _126
REMARK   54  A    between atoms: _135  and  _137
REMARK   55  A    between atoms: _137  and  _138
REMARK   56  A    between atoms: _141  and  _143
REMARK   57  A    between atoms: _143  and  _144
REMARK   58  A    between atoms: _146  and  _148
REMARK   59  A    between atoms: _148  and  _149
REMARK   60  A    between atoms: _148  and  _151
REMARK   61  A    between atoms: _151  and  _152
REMARK   62  A    between atoms: _155  and  _157
REMARK   63  A    between atoms: _157  and  _158
REMARK   64  A    between atoms: _160  and  _162
REMARK   65  A    between atoms: _162  and  _163
REMARK   66  A    between atoms: _162  and  _165
REMARK   67  A    between atoms: _165  and  _166
REMARK   68  A    between atoms: _168  and  _170
REMARK   69  A    between atoms: _170  and  _171
REMARK   70  A    between atoms: _170  and  _173
REMARK   71  A    between atoms: _173  and  _174
REMARK   72  A    between atoms: _174  and  _175
REMARK   73  A    between atoms: _180  and  _182
REMARK   74  A    between atoms: _182  and  _183
REMARK   75  A    between atoms: _182  and  _185
REMARK   76  A    between atoms: _185  and  _186
REMARK   77  A    between atoms: _191  and  _193
REMARK   78  A    between atoms: _193  and  _194
REMARK   79  A    between atoms: _193  and  _196
REMARK   80  A    between atoms: _196  and  _197
REMARK   81  A    between atoms: _200  and  _202
REMARK   82  A    between atoms: _202  and  _203
REMARK   83  A    between atoms: _202  and  _205
REMARK   84  A    between atoms: _205  and  _206
REMARK   85  A    between atoms: _206  and  _207
REMARK   86  A    between atoms: _212  and  _214
REMARK   87  A    between atoms: _214  and  _215
REMARK   88  A    between atoms: _214  and  _217
REMARK   89  A    between atoms: _217  and  _218
REMARK   90  A    between atoms: _221  and  _223
REMARK   91  A    between atoms: _223  and  _224
REMARK   92  A    between atoms: _223  and  _226
REMARK   93  A    between atoms: _226  and  _227
REMARK   94  A    between atoms: _230  and  _232
REMARK   95  A    between atoms: _232  and  _233
REMARK   96  A    between atoms: _232  and  _235
REMARK   97  A    between atoms: _238  and  _240
REMARK   98  A    between atoms: _240  and  _241
REMARK   99  A    between atoms: _240  and  _243
REMARK  100  A    between atoms: _243  and  _244
REMARK  101  A    between atoms: _247  and  _249
REMARK  102  A    between atoms: _249  and  _250
REMARK  103  A    between atoms: _249  and  _252
REMARK  104  A    between atoms: _252  and  _253
REMARK  105  A    between atoms: _258  and  _259
REMARK  106  A    between atoms: _261  and  _263
REMARK  107  A    between atoms: _263  and  _264
REMARK  108  A    between atoms: _266  and  _268
REMARK  109  A    between atoms: _268  and  _269
REMARK  110  A    between atoms: _268  and  _271
REMARK  111  A    between atoms: _271  and  _272
REMARK  112  A    between atoms: _272  and  _273
REMARK  113  A    between atoms: _273  and  _274
REMARK  114  A    between atoms: _283  and  _285
REMARK  115  A    between atoms: _285  and  _286
REMARK  116  A    between atoms: _285  and  _288
REMARK  117  A    between atoms: _288  and  _289
REMARK  118  A    between atoms: _292  and  _294
REMARK  119  A    between atoms: _294  and  _295
REMARK  120  A    between atoms: _294  and  _297
REMARK  121  A    between atoms: _300  and  _302
REMARK  122  A    between atoms: _302  and  _303
REMARK  123  A    between atoms: _302  and  _305
REMARK  124  A    between atoms: _305  and  _306
REMARK  125  A    between atoms: _311  and  _313
REMARK  126  A    between atoms: _313  and  _314
REMARK  127  A    between atoms: _313  and  _316
REMARK  128  A    between atoms: _316  and  _317
REMARK  129  A    between atoms: _319  and  _321
REMARK  130  A    between atoms: _321  and  _322
REMARK  131  A    between atoms: _321  and  _324
REMARK  132  A    between atoms: _324  and  _325
REMARK  133  A    between atoms: _330  and  _331
REMARK  134  A    between atoms: _333  and  _335
REMARK  135  A    between atoms: _335  and  _336
REMARK  136  A    between atoms: _335  and  _338
REMARK  137  A    between atoms: _338  and  _339
REMARK  138  A    between atoms: _339  and  _340
REMARK  139  A    between atoms: _342  and  _344
REMARK  140  A    between atoms: _344  and  _345
REMARK  141  A    between atoms: _344  and  _347
REMARK  142  A    between atoms: _347  and  _348
REMARK  143  A    between atoms: _351  and  _353
REMARK  144  A    between atoms: _353  and  _354
REMARK  145  A    between atoms: _353  and  _356
REMARK  146  A    between atoms: _356  and  _357
REMARK  147  A    between atoms: _357  and  _358
REMARK  148  A    between atoms: _358  and  _359
REMARK  149  A    between atoms: _368  and  _370
REMARK  150  A    between atoms: _370  and  _371
REMARK  151  A    between atoms: _370  and  _373
REMARK  152  A    between atoms: _376  and  _378
REMARK  153  A    between atoms: _378  and  _379
REMARK  154  A    between atoms: _378  and  _381
REMARK  155  A    between atoms: _381  and  _382
REMARK  156  A    between atoms: _382  and  _383
REMARK  157  A    between atoms: _388  and  _390
REMARK  158  A    between atoms: _390  and  _391
REMARK  159  A    between atoms: _390  and  _393
REMARK  160  A    between atoms: _393  and  _394
REMARK  161  A    between atoms: _394  and  _395
REMARK  162  A    between atoms: _395  and  _396
REMARK  163  A    between atoms: _405  and  _407
REMARK  164  A    between atoms: _407  and  _408
REMARK  165  A    between atoms: _407  and  _410
REMARK  166  A    between atoms: _410  and  _411
REMARK  167  A    between atoms: _417  and  _418
REMARK  168  A    between atoms: _423  and  _425
REMARK  169  A    between atoms: _425  and  _426
REMARK  170  A    between atoms: _425  and  _428
REMARK  171  A    between atoms: _428  and  _429
REMARK  172  A    between atoms: _433  and  _434
REMARK  173  A    between atoms: _439  and  _441
REMARK  174  A    between atoms: _441  and  _442
REMARK  175  A    between atoms: _441  and  _444
REMARK  176  A    between atoms: _444  and  _445
REMARK  177  A    between atoms: _445  and  _446
REMARK  178  A    between atoms: _446  and  _447
REMARK  179  A    between atoms: _456  and  _458
REMARK  180  A    between atoms: _458  and  _459
REMARK  181  A    between atoms: _458  and  _461
REMARK  182  A    between atoms: _461  and  _462
REMARK  183  A    between atoms: _462  and  _463
REMARK  184  A    between atoms: _466  and  _468
REMARK  185  A    between atoms: _468  and  _469
REMARK  186  A    between atoms: _468  and  _471
REMARK  187  A    between atoms: _471  and  _472
REMARK  188  A    between atoms: _472  and  _473
REMARK  189  A    between atoms: _478  and  _480
REMARK  190  A    between atoms: _480  and  _481
REMARK  191  A    between atoms: _484  and  _486
REMARK  192  A    between atoms: _486  and  _487
REMARK  193  A    between atoms: _486  and  _489
REMARK  194  A    between atoms: _489  and  _490
REMARK  195  A    between atoms: _490  and  _491
REMARK  196  A    between atoms: _491  and  _492
REMARK  197  A    between atoms: _501  and  _503
REMARK  198  A    between atoms: _503  and  _504
REMARK  199  A    between atoms: _503  and  _506
REMARK  200  A    between atoms: _506  and  _507
REMARK  201  A    between atoms: _509  and  _511
REMARK  202  A    between atoms: _511  and  _512
REMARK  203  A    between atoms: _511  and  _514
REMARK  204  A    between atoms: _514  and  _515
REMARK  205  A    between atoms: _518  and  _520
REMARK  206  A    between atoms: _520  and  _521
REMARK  207  A    between atoms: _523  and  _525
REMARK  208  A    between atoms: _525  and  _526
REMARK  209  A    between atoms: _525  and  _528
REMARK  210  A    between atoms: _528  and  _529
REMARK  211  A    between atoms: _529  and  _530
REMARK  212  A    between atoms: _530  and  _531
REMARK  213  A    between atoms: _531  and  _532
REMARK  214  A    between atoms: _536  and  _538
REMARK  215  A    between atoms: _538  and  _539
REMARK  216  A    between atoms: _538  and  _541
REMARK  217  A    between atoms: _541  and  _542
REMARK  218  A    between atoms: _542  and  _543
REMARK  219  A    between atoms: _543  and  _544
REMARK  220  A    between atoms: _544  and  _545
REMARK  221  A    between atoms: _549  and  _551
REMARK  222  A    between atoms: _551  and  _552
REMARK  223  A    between atoms: _551  and  _554
REMARK  224  A    between atoms: _554  and  _555
REMARK  225  A    between atoms: _555  and  _556
REMARK  226  A    between atoms: _559  and  _561
REMARK  227  A    between atoms: _561  and  _562
REMARK  228  A    between atoms: _561  and  _564
REMARK  229  A    between atoms: _567  and  _569
REMARK  230  A    between atoms: _569  and  _570
REMARK  231  A    between atoms: _569  and  _572
REMARK  232  A    between atoms: _572  and  _573
REMARK  233  A    between atoms: _578  and  _579
REMARK                            x       y       z     vdW  Elec       q    Type
REMARK                         _______ _______ _______ _____ _____    ______ ____
ROOT
ATOM      1  O   HOH     1      39.739  35.141  11.747  0.00  0.00    +0.000 OA
ENDROOT
TORSDOF 0
REMARK  Name = ../refined-set-2016/2fzg/2fzg_pocket.pdb
REMARK  233 active torsions:
REMARK  status: ('A' for Active; 'I' for Inactive)
REMARK    1  A    between atoms: _1  and  _3
REMARK    2  A    between atoms: _3  and  _4
REMARK    3  A    between atoms: _3  and  _6
REMARK    4  A    between atoms: _6  and  _7
REMARK    5  A    between atoms: _13  and  _15
REMARK    6  A    between atoms: _15  and  _16
REMARK    7  A    between atoms: _15  and  _18
REMARK    8  A    between atoms: _18  and  _19
REMARK    9  A    between atoms: _19  and  _20
REMARK   10  A    between atoms: _23  and  _25
REMARK   11  A    between atoms: _25  and  _26
REMARK   12  A    between atoms: _29  and  _31
REMARK   13  A    between atoms: _31  and  _32
REMARK   14  A    between atoms: _31  and  _34
REMARK   15  A    between atoms: _34  and  _35
REMARK   16  A    between atoms: _37  and  _39
REMARK   17  A    between atoms: _39  and  _40
REMARK   18  A    between atoms: _39  and  _42
REMARK   19  A    between atoms: _42  and  _43
REMARK   20  A    between atoms: _46  and  _48
REMARK   21  A    between atoms: _48  and  _49
REMARK   22  A    between atoms: _48  and  _51
REMARK   23  A    between atoms: _51  and  _52
REMARK   24  A    between atoms: _52  and  _53
REMARK   25  A    between atoms: _53  and  _54
REMARK   26  A    between atoms: _63  and  _65
REMARK   27  A    between atoms: _65  and  _66
REMARK   28  A    between atoms: _65  and  _68
REMARK   29  A    between atoms: _68  and  _69
REMARK   30  A    between atoms: _72  and  _74
REMARK   31  A    between atoms: _74  and  _75
REMARK   32  A    between atoms: _74  and  _77
REMARK   33  A    between atoms: _77  and  _78
REMARK   34  A    between atoms: _78  and  _79
REMARK   35  A    between atoms: _79  and  _80
REMARK   36  A    between atoms: _89  and  _91
REMARK   37  A    between atoms: _91  and  _92
REMARK   38  A    between atoms: _91  and  _94
REMARK   39  A    between atoms: _94  and  _95
REMARK   40  A    between atoms: _98  and  _100
REMARK   41  A    between atoms: _100  and  _101
REMARK   42  A    between atoms: _100  and  _103
REMARK   43  A    between atoms: _103  and  _104
REMARK   44  A    between atoms: _106  and  _108
REMARK   45  A    between atoms: _108  and  _109
REMARK   46  A    between atoms: _108  and  _111
REMARK   47  A    between atoms: _111  and  _112
REMARK   48  A    between atoms: _118  and  _120
REMARK   49  A    between atoms: _120  and  _121
REMARK   50  A    between atoms: _120  and  _123
REMARK   51  A    between atoms: _123  and  _124
REMARK   52  A    between atoms: _124  and  _125
REMARK   53  A    between atoms: _125  and  _126
REMARK   54  A    between atoms: _135  and  _137
REMARK   55  A    between atoms: _137  and  _138
REMARK   56  A    between atoms: _141  and  _143
REMARK   57  A    between atoms: _143  and  _144
REMARK   58  A    between atoms: _146  and  _148
REMARK   59  A    between atoms: _148  and  _149
REMARK   60  A    between atoms: _148  and  _151
REMARK   61  A    between atoms: _151  and  _152
REMARK   62  A    between atoms: _155  and  _157
REMARK   63  A    between atoms: _157  and  _158
REMARK   64  A    between atoms: _160  and  _162
REMARK   65  A    between atoms: _162  and  _163
REMARK   66  A    between atoms: _162  and  _165
REMARK   67  A    between atoms: _165  and  _166
REMARK   68  A    between atoms: _168  and  _170
REMARK   69  A    between atoms: _170  and  _171
REMARK   70  A    between atoms: _170  and  _173
REMARK   71  A    between atoms: _173  and  _174
REMARK   72  A    between atoms: _174  and  _175
REMARK   73  A    between atoms: _180  and  _182
REMARK   74  A    between atoms: _182  and  _183
REMARK   75  A    between atoms: _182  and  _185
REMARK   76  A    between atoms: _185  and  _186
REMARK   77  A    between atoms: _191  and  _193
REMARK   78  A    between atoms: _193  and  _194
REMARK   79  A    between atoms: _193  and  _196
REMARK   80  A    between atoms: _196  and  _197
REMARK   81  A    between atoms: _200  and  _202
REMARK   82  A    between atoms: _202  and  _203
REMARK   83  A    between atoms: _202  and  _205
REMARK   84  A    between atoms: _205  and  _206
REMARK   85  A    between atoms: _206  and  _207
REMARK   86  A    between atoms: _212  and  _214
REMARK   87  A    between atoms: _214  and  _215
REMARK   88  A    between atoms: _214  and  _217
REMARK   89  A    between atoms: _217  and  _218
REMARK   90  A    between atoms: _221  and  _223
REMARK   91  A    between atoms: _223  and  _224
REMARK   92  A    between atoms: _223  and  _226
REMARK   93  A    between atoms: _226  and  _227
REMARK   94  A    between atoms: _230  and  _232
REMARK   95  A    between atoms: _232  and  _233
REMARK   96  A    between atoms: _232  and  _235
REMARK   97  A    between atoms: _238  and  _240
REMARK   98  A    between atoms: _240  and  _241
REMARK   99  A    between atoms: _240  and  _243
REMARK  100  A    between atoms: _243  and  _244
REMARK  101  A    between atoms: _247  and  _249
REMARK  102  A    between atoms: _249  and  _250
REMARK  103  A    between atoms: _249  and  _252
REMARK  104  A    between atoms: _252  and  _253
REMARK  105  A    between atoms: _258  and  _259
REMARK  106  A    between atoms: _261  and  _263
REMARK  107  A    between atoms: _263  and  _264
REMARK  108  A    between atoms: _266  and  _268
REMARK  109  A    between atoms: _268  and  _269
REMARK  110  A    between atoms: _268  and  _271
REMARK  111  A    between atoms: _271  and  _272
REMARK  112  A    between atoms: _272  and  _273
REMARK  113  A    between atoms: _273  and  _274
REMARK  114  A    between atoms: _283  and  _285
REMARK  115  A    between atoms: _285  and  _286
REMARK  116  A    between atoms: _285  and  _288
REMARK  117  A    between atoms: _288  and  _289
REMARK  118  A    between atoms: _292  and  _294
REMARK  119  A    between atoms: _294  and  _295
REMARK  120  A    between atoms: _294  and  _297
REMARK  121  A    between atoms: _300  and  _302
REMARK  122  A    between atoms: _302  and  _303
REMARK  123  A    between atoms: _302  and  _305
REMARK  124  A    between atoms: _305  and  _306
REMARK  125  A    between atoms: _311  and  _313
REMARK  126  A    between atoms: _313  and  _314
REMARK  127  A    between atoms: _313  and  _316
REMARK  128  A    between atoms: _316  and  _317
REMARK  129  A    between atoms: _319  and  _321
REMARK  130  A    between atoms: _321  and  _322
REMARK  131  A    between atoms: _321  and  _324
REMARK  132  A    between atoms: _324  and  _325
REMARK  133  A    between atoms: _330  and  _331
REMARK  134  A    between atoms: _333  and  _335
REMARK  135  A    between atoms: _335  and  _336
REMARK  136  A    between atoms: _335  and  _338
REMARK  137  A    between atoms: _338  and  _339
REMARK  138  A    between atoms: _339  and  _340
REMARK  139  A    between atoms: _342  and  _344
REMARK  140  A    between atoms: _344  and  _345
REMARK  141  A    between atoms: _344  and  _347
REMARK  142  A    between atoms: _347  and  _348
REMARK  143  A    between atoms: _351  and  _353
REMARK  144  A    between atoms: _353  and  _354
REMARK  145  A    between atoms: _353  and  _356
REMARK  146  A    between atoms: _356  and  _357
REMARK  147  A    between atoms: _357  and  _358
REMARK  148  A    between atoms: _358  and  _359
REMARK  149  A    between atoms: _368  and  _370
REMARK  150  A    between atoms: _370  and  _371
REMARK  151  A    between atoms: _370  and  _373
REMARK  152  A    between atoms: _376  and  _378
REMARK  153  A    between atoms: _378  and  _379
REMARK  154  A    between atoms: _378  and  _381
REMARK  155  A    between atoms: _381  and  _382
REMARK  156  A    between atoms: _382  and  _383
REMARK  157  A    between atoms: _388  and  _390
REMARK  158  A    between atoms: _390  and  _391
REMARK  159  A    between atoms: _390  and  _393
REMARK  160  A    between atoms: _393  and  _394
REMARK  161  A    between atoms: _394  and  _395
REMARK  162  A    between atoms: _395  and  _396
REMARK  163  A    between atoms: _405  and  _407
REMARK  164  A    between atoms: _407  and  _408
REMARK  165  A    between atoms: _407  and  _410
REMARK  166  A    between atoms: _410  and  _411
REMARK  167  A    between atoms: _417  and  _418
REMARK  168  A    between atoms: _423  and  _425
REMARK  169  A    between atoms: _425  and  _426
REMARK  170  A    between atoms: _425  and  _428
REMARK  171  A    between atoms: _428  and  _429
REMARK  172  A    between atoms: _433  and  _434
REMARK  173  A    between atoms: _439  and  _441
REMARK  174  A    between atoms: _441  and  _442
REMARK  175  A    between atoms: _441  and  _444
REMARK  176  A    between atoms: _444  and  _445
REMARK  177  A    between atoms: _445  and  _446
REMARK  178  A    between atoms: _446  and  _447
REMARK  179  A    between atoms: _456  and  _458
REMARK  180  A    between atoms: _458  and  _459
REMARK  181  A    between atoms: _458  and  _461
REMARK  182  A    between atoms: _461  and  _462
REMARK  183  A    between atoms: _462  and  _463
REMARK  184  A    between atoms: _466  and  _468
REMARK  185  A    between atoms: _468  and  _469
REMARK  186  A    between atoms: _468  and  _471
REMARK  187  A    between atoms: _471  and  _472
REMARK  188  A    between atoms: _472  and  _473
REMARK  189  A    between atoms: _478  and  _480
REMARK  190  A    between atoms: _480  and  _481
REMARK  191  A    between atoms: _484  and  _486
REMARK  192  A    between atoms: _486  and  _487
REMARK  193  A    between atoms: _486  and  _489
REMARK  194  A    between atoms: _489  and  _490
REMARK  195  A    between atoms: _490  and  _491
REMARK  196  A    between atoms: _491  and  _492
REMARK  197  A    between atoms: _501  and  _503
REMARK  198  A    between atoms: _503  and  _504
REMARK  199  A    between atoms: _503  and  _506
REMARK  200  A    between atoms: _506  and  _507
REMARK  201  A    between atoms: _509  and  _511
REMARK  202  A    between atoms: _511  and  _512
REMARK  203  A    between atoms: _511  and  _514
REMARK  204  A    between atoms: _514  and  _515
REMARK  205  A    between atoms: _518  and  _520
REMARK  206  A    between atoms: _520  and  _521
REMARK  207  A    between atoms: _523  and  _525
REMARK  208  A    between atoms: _525  and  _526
REMARK  209  A    between atoms: _525  and  _528
REMARK  210  A    between atoms: _528  and  _529
REMARK  211  A    between atoms: _529  and  _530
REMARK  212  A    between atoms: _530  and  _531
REMARK  213  A    between atoms: _531  and  _532
REMARK  214  A    between atoms: _536  and  _538
REMARK  215  A    between atoms: _538  and  _539
REMARK  216  A    between atoms: _538  and  _541
REMARK  217  A    between atoms: _541  and  _542
REMARK  218  A    between atoms: _542  and  _543
REMARK  219  A    between atoms: _543  and  _544
REMARK  220  A    between atoms: _544  and  _545
REMARK  221  A    between atoms: _549  and  _551
REMARK  222  A    between atoms: _551  and  _552
REMARK  223  A    between atoms: _551  and  _554
REMARK  224  A    between atoms: _554  and  _555
REMARK  225  A    between atoms: _555  and  _556
REMARK  226  A    between atoms: _559  and  _561
REMARK  227  A    between atoms: _561  and  _562
REMARK  228  A    between atoms: _561  and  _564
REMARK  229  A    between atoms: _567  and  _569
REMARK  230  A    between atoms: _569  and  _570
REMARK  231  A    between atoms: _569  and  _572
REMARK  232  A    between atoms: _572  and  _573
REMARK  233  A    between atoms: _578  and  _579
REMARK                            x       y       z     vdW  Elec       q    Type
REMARK                         _______ _______ _______ _____ _____    ______ ____
ROOT
ATOM      1  O   HOH     1      39.766  22.277  12.552  0.00  0.00    +0.000 OA
ENDROOT
TORSDOF 0
REMARK  Name = ../refined-set-2016/2fzg/2fzg_pocket.pdb
REMARK  233 active torsions:
REMARK  status: ('A' for Active; 'I' for Inactive)
REMARK    1  A    between atoms: _1  and  _3
REMARK    2  A    between atoms: _3  and  _4
REMARK    3  A    between atoms: _3  and  _6
REMARK    4  A    between atoms: _6  and  _7
REMARK    5  A    between atoms: _13  and  _15
REMARK    6  A    between atoms: _15  and  _16
REMARK    7  A    between atoms: _15  and  _18
REMARK    8  A    between atoms: _18  and  _19
REMARK    9  A    between atoms: _19  and  _20
REMARK   10  A    between atoms: _23  and  _25
REMARK   11  A    between atoms: _25  and  _26
REMARK   12  A    between atoms: _29  and  _31
REMARK   13  A    between atoms: _31  and  _32
REMARK   14  A    between atoms: _31  and  _34
REMARK   15  A    between atoms: _34  and  _35
REMARK   16  A    between atoms: _37  and  _39
REMARK   17  A    between atoms: _39  and  _40
REMARK   18  A    between atoms: _39  and  _42
REMARK   19  A    between atoms: _42  and  _43
REMARK   20  A    between atoms: _46  and  _48
REMARK   21  A    between atoms: _48  and  _49
REMARK   22  A    between atoms: _48  and  _51
REMARK   23  A    between atoms: _51  and  _52
REMARK   24  A    between atoms: _52  and  _53
REMARK   25  A    between atoms: _53  and  _54
REMARK   26  A    between atoms: _63  and  _65
REMARK   27  A    between atoms: _65  and  _66
REMARK   28  A    between atoms: _65  and  _68
REMARK   29  A    between atoms: _68  and  _69
REMARK   30  A    between atoms: _72  and  _74
REMARK   31  A    between atoms: _74  and  _75
REMARK   32  A    between atoms: _74  and  _77
REMARK   33  A    between atoms: _77  and  _78
REMARK   34  A    between atoms: _78  and  _79
REMARK   35  A    between atoms: _79  and  _80
REMARK   36  A    between atoms: _89  and  _91
REMARK   37  A    between atoms: _91  and  _92
REMARK   38  A    between atoms: _91  and  _94
REMARK   39  A    between atoms: _94  and  _95
REMARK   40  A    between atoms: _98  and  _100
REMARK   41  A    between atoms: _100  and  _101
REMARK   42  A    between atoms: _100  and  _103
REMARK   43  A    between atoms: _103  and  _104
REMARK   44  A    between atoms: _106  and  _108
REMARK   45  A    between atoms: _108  and  _109
REMARK   46  A    between atoms: _108  and  _111
REMARK   47  A    between atoms: _111  and  _112
REMARK   48  A    between atoms: _118  and  _120
REMARK   49  A    between atoms: _120  and  _121
REMARK   50  A    between atoms: _120  and  _123
REMARK   51  A    between atoms: _123  and  _124
REMARK   52  A    between atoms: _124  and  _125
REMARK   53  A    between atoms: _125  and  _126
REMARK   54  A    between atoms: _135  and  _137
REMARK   55  A    between atoms: _137  and  _138
REMARK   56  A    between atoms: _141  and  _143
REMARK   57  A    between atoms: _143  and  _144
REMARK   58  A    between atoms: _146  and  _148
REMARK   59  A    between atoms: _148  and  _149
REMARK   60  A    between atoms: _148  and  _151
REMARK   61  A    between atoms: _151  and  _152
REMARK   62  A    between atoms: _155  and  _157
REMARK   63  A    between atoms: _157  and  _158
REMARK   64  A    between atoms: _160  and  _162
REMARK   65  A    between atoms: _162  and  _163
REMARK   66  A    between atoms: _162  and  _165
REMARK   67  A    between atoms: _165  and  _166
REMARK   68  A    between atoms: _168  and  _170
REMARK   69  A    between atoms: _170  and  _171
REMARK   70  A    between atoms: _170  and  _173
REMARK   71  A    between atoms: _173  and  _174
REMARK   72  A    between atoms: _174  and  _175
REMARK   73  A    between atoms: _180  and  _182
REMARK   74  A    between atoms: _182  and  _183
REMARK   75  A    between atoms: _182  and  _185
REMARK   76  A    between atoms: _185  and  _186
REMARK   77  A    between atoms: _191  and  _193
REMARK   78  A    between atoms: _193  and  _194
REMARK   79  A    between atoms: _193  and  _196
REMARK   80  A    between atoms: _196  and  _197
REMARK   81  A    between atoms: _200  and  _202
REMARK   82  A    between atoms: _202  and  _203
REMARK   83  A    between atoms: _202  and  _205
REMARK   84  A    between atoms: _205  and  _206
REMARK   85  A    between atoms: _206  and  _207
REMARK   86  A    between atoms: _212  and  _214
REMARK   87  A    between atoms: _214  and  _215
REMARK   88  A    between atoms: _214  and  _217
REMARK   89  A    between atoms: _217  and  _218
REMARK   90  A    between atoms: _221  and  _223
REMARK   91  A    between atoms: _223  and  _224
REMARK   92  A    between atoms: _223  and  _226
REMARK   93  A    between atoms: _226  and  _227
REMARK   94  A    between atoms: _230  and  _232
REMARK   95  A    between atoms: _232  and  _233
REMARK   96  A    between atoms: _232  and  _235
REMARK   97  A    between atoms: _238  and  _240
REMARK   98  A    between atoms: _240  and  _241
REMARK   99  A    between atoms: _240  and  _243
REMARK  100  A    between atoms: _243  and  _244
REMARK  101  A    between atoms: _247  and  _249
REMARK  102  A    between atoms: _249  and  _250
REMARK  103  A    between atoms: _249  and  _252
REMARK  104  A    between atoms: _252  and  _253
REMARK  105  A    between atoms: _258  and  _259
REMARK  106  A    between atoms: _261  and  _263
REMARK  107  A    between atoms: _263  and  _264
REMARK  108  A    between atoms: _266  and  _268
REMARK  109  A    between atoms: _268  and  _269
REMARK  110  A    between atoms: _268  and  _271
REMARK  111  A    between atoms: _271  and  _272
REMARK  112  A    between atoms: _272  and  _273
REMARK  113  A    between atoms: _273  and  _274
REMARK  114  A    between atoms: _283  and  _285
REMARK  115  A    between atoms: _285  and  _286
REMARK  116  A    between atoms: _285  and  _288
REMARK  117  A    between atoms: _288  and  _289
REMARK  118  A    between atoms: _292  and  _294
REMARK  119  A    between atoms: _294  and  _295
REMARK  120  A    between atoms: _294  and  _297
REMARK  121  A    between atoms: _300  and  _302
REMARK  122  A    between atoms: _302  and  _303
REMARK  123  A    between atoms: _302  and  _305
REMARK  124  A    between atoms: _305  and  _306
REMARK  125  A    between atoms: _311  and  _313
REMARK  126  A    between atoms: _313  and  _314
REMARK  127  A    between atoms: _313  and  _316
REMARK  128  A    between atoms: _316  and  _317
REMARK  129  A    between atoms: _319  and  _321
REMARK  130  A    between atoms: _321  and  _322
REMARK  131  A    between atoms: _321  and  _324
REMARK  132  A    between atoms: _324  and  _325
REMARK  133  A    between atoms: _330  and  _331
REMARK  134  A    between atoms: _333  and  _335
REMARK  135  A    between atoms: _335  and  _336
REMARK  136  A    between atoms: _335  and  _338
REMARK  137  A    between atoms: _338  and  _339
REMARK  138  A    between atoms: _339  and  _340
REMARK  139  A    between atoms: _342  and  _344
REMARK  140  A    between atoms: _344  and  _345
REMARK  141  A    between atoms: _344  and  _347
REMARK  142  A    between atoms: _347  and  _348
REMARK  143  A    between atoms: _351  and  _353
REMARK  144  A    between atoms: _353  and  _354
REMARK  145  A    between atoms: _353  and  _356
REMARK  146  A    between atoms: _356  and  _357
REMARK  147  A    between atoms: _357  and  _358
REMARK  148  A    between atoms: _358  and  _359
REMARK  149  A    between atoms: _368  and  _370
REMARK  150  A    between atoms: _370  and  _371
REMARK  151  A    between atoms: _370  and  _373
REMARK  152  A    between atoms: _376  and  _378
REMARK  153  A    between atoms: _378  and  _379
REMARK  154  A    between atoms: _378  and  _381
REMARK  155  A    between atoms: _381  and  _382
REMARK  156  A    between atoms: _382  and  _383
REMARK  157  A    between atoms: _388  and  _390
REMARK  158  A    between atoms: _390  and  _391
REMARK  159  A    between atoms: _390  and  _393
REMARK  160  A    between atoms: _393  and  _394
REMARK  161  A    between atoms: _394  and  _395
REMARK  162  A    between atoms: _395  and  _396
REMARK  163  A    between atoms: _405  and  _407
REMARK  164  A    between atoms: _407  and  _408
REMARK  165  A    between atoms: _407  and  _410
REMARK  166  A    between atoms: _410  and  _411
REMARK  167  A    between atoms: _417  and  _418
REMARK  168  A    between atoms: _423  and  _425
REMARK  169  A    between atoms: _425  and  _426
REMARK  170  A    between atoms: _425  and  _428
REMARK  171  A    between atoms: _428  and  _429
REMARK  172  A    between atoms: _433  and  _434
REMARK  173  A    between atoms: _439  and  _441
REMARK  174  A    between atoms: _441  and  _442
REMARK  175  A    between atoms: _441  and  _444
REMARK  176  A    between atoms: _444  and  _445
REMARK  177  A    between atoms: _445  and  _446
REMARK  178  A    between atoms: _446  and  _447
REMARK  179  A    between atoms: _456  and  _458
REMARK  180  A    between atoms: _458  and  _459
REMARK  181  A    between atoms: _458  and  _461
REMARK  182  A    between atoms: _461  and  _462
REMARK  183  A    between atoms: _462  and  _463
REMARK  184  A    between atoms: _466  and  _468
REMARK  185  A    between atoms: _468  and  _469
REMARK  186  A    between atoms: _468  and  _471
REMARK  187  A    between atoms: _471  and  _472
REMARK  188  A    between atoms: _472  and  _473
REMARK  189  A    between atoms: _478  and  _480
REMARK  190  A    between atoms: _480  and  _481
REMARK  191  A    between atoms: _484  and  _486
REMARK  192  A    between atoms: _486  and  _487
REMARK  193  A    between atoms: _486  and  _489
REMARK  194  A    between atoms: _489  and  _490
REMARK  195  A    between atoms: _490  and  _491
REMARK  196  A    between atoms: _491  and  _492
REMARK  197  A    between atoms: _501  and  _503
REMARK  198  A    between atoms: _503  and  _504
REMARK  199  A    between atoms: _503  and  _506
REMARK  200  A    between atoms: _506  and  _507
REMARK  201  A    between atoms: _509  and  _511
REMARK  202  A    between atoms: _511  and  _512
REMARK  203  A    between atoms: _511  and  _514
REMARK  204  A    between atoms: _514  and  _515
REMARK  205  A    between atoms: _518  and  _520
REMARK  206  A    between atoms: _520  and  _521
REMARK  207  A    between atoms: _523  and  _525
REMARK  208  A    between atoms: _525  and  _526
REMARK  209  A    between atoms: _525  and  _528
REMARK  210  A    between atoms: _528  and  _529
REMARK  211  A    between atoms: _529  and  _530
REMARK  212  A    between atoms: _530  and  _531
REMARK  213  A    between atoms: _531  and  _532
REMARK  214  A    between atoms: _536  and  _538
REMARK  215  A    between atoms: _538  and  _539
REMARK  216  A    between atoms: _538  and  _541
REMARK  217  A    between atoms: _541  and  _542
REMARK  218  A    between atoms: _542  and  _543
REMARK  219  A    between atoms: _543  and  _544
REMARK  220  A    between atoms: _544  and  _545
REMARK  221  A    between atoms: _549  and  _551
REMARK  222  A    between atoms: _551  and  _552
REMARK  223  A    between atoms: _551  and  _554
REMARK  224  A    between atoms: _554  and  _555
REMARK  225  A    between atoms: _555  and  _556
REMARK  226  A    between atoms: _559  and  _561
REMARK  227  A    between atoms: _561  and  _562
REMARK  228  A    between atoms: _561  and  _564
REMARK  229  A    between atoms: _567  and  _569
REMARK  230  A    between atoms: _569  and  _570
REMARK  231  A    between atoms: _569  and  _572
REMARK  232  A    between atoms: _572  and  _573
REMARK  233  A    between atoms: _578  and  _579
REMARK                            x       y       z     vdW  Elec       q    Type
REMARK                         _______ _______ _______ _____ _____    ______ ____
ROOT
ATOM      1  O   HOH     1      41.805  29.359  13.094  0.00  0.00    +0.000 OA
ENDROOT
TORSDOF 0
REMARK  Name = ../refined-set-2016/2fzg/2fzg_pocket.pdb
REMARK  233 active torsions:
REMARK  status: ('A' for Active; 'I' for Inactive)
REMARK    1  A    between atoms: _1  and  _3
REMARK    2  A    between atoms: _3  and  _4
REMARK    3  A    between atoms: _3  and  _6
REMARK    4  A    between atoms: _6  and  _7
REMARK    5  A    between atoms: _13  and  _15
REMARK    6  A    between atoms: _15  and  _16
REMARK    7  A    between atoms: _15  and  _18
REMARK    8  A    between atoms: _18  and  _19
REMARK    9  A    between atoms: _19  and  _20
REMARK   10  A    between atoms: _23  and  _25
REMARK   11  A    between atoms: _25  and  _26
REMARK   12  A    between atoms: _29  and  _31
REMARK   13  A    between atoms: _31  and  _32
REMARK   14  A    between atoms: _31  and  _34
REMARK   15  A    between atoms: _34  and  _35
REMARK   16  A    between atoms: _37  and  _39
REMARK   17  A    between atoms: _39  and  _40
REMARK   18  A    between atoms: _39  and  _42
REMARK   19  A    between atoms: _42  and  _43
REMARK   20  A    between atoms: _46  and  _48
REMARK   21  A    between atoms: _48  and  _49
REMARK   22  A    between atoms: _48  and  _51
REMARK   23  A    between atoms: _51  and  _52
REMARK   24  A    between atoms: _52  and  _53
REMARK   25  A    between atoms: _53  and  _54
REMARK   26  A    between atoms: _63  and  _65
REMARK   27  A    between atoms: _65  and  _66
REMARK   28  A    between atoms: _65  and  _68
REMARK   29  A    between atoms: _68  and  _69
REMARK   30  A    between atoms: _72  and  _74
REMARK   31  A    between atoms: _74  and  _75
REMARK   32  A    between atoms: _74  and  _77
REMARK   33  A    between atoms: _77  and  _78
REMARK   34  A    between atoms: _78  and  _79
REMARK   35  A    between atoms: _79  and  _80
REMARK   36  A    between atoms: _89  and  _91
REMARK   37  A    between atoms: _91  and  _92
REMARK   38  A    between atoms: _91  and  _94
REMARK   39  A    between atoms: _94  and  _95
REMARK   40  A    between atoms: _98  and  _100
REMARK   41  A    between atoms: _100  and  _101
REMARK   42  A    between atoms: _100  and  _103
REMARK   43  A    between atoms: _103  and  _104
REMARK   44  A    between atoms: _106  and  _108
REMARK   45  A    between atoms: _108  and  _109
REMARK   46  A    between atoms: _108  and  _111
REMARK   47  A    between atoms: _111  and  _112
REMARK   48  A    between atoms: _118  and  _120
REMARK   49  A    between atoms: _120  and  _121
REMARK   50  A    between atoms: _120  and  _123
REMARK   51  A    between atoms: _123  and  _124
REMARK   52  A    between atoms: _124  and  _125
REMARK   53  A    between atoms: _125  and  _126
REMARK   54  A    between atoms: _135  and  _137
REMARK   55  A    between atoms: _137  and  _138
REMARK   56  A    between atoms: _141  and  _143
REMARK   57  A    between atoms: _143  and  _144
REMARK   58  A    between atoms: _146  and  _148
REMARK   59  A    between atoms: _148  and  _149
REMARK   60  A    between atoms: _148  and  _151
REMARK   61  A    between atoms: _151  and  _152
REMARK   62  A    between atoms: _155  and  _157
REMARK   63  A    between atoms: _157  and  _158
REMARK   64  A    between atoms: _160  and  _162
REMARK   65  A    between atoms: _162  and  _163
REMARK   66  A    between atoms: _162  and  _165
REMARK   67  A    between atoms: _165  and  _166
REMARK   68  A    between atoms: _168  and  _170
REMARK   69  A    between atoms: _170  and  _171
REMARK   70  A    between atoms: _170  and  _173
REMARK   71  A    between atoms: _173  and  _174
REMARK   72  A    between atoms: _174  and  _175
REMARK   73  A    between atoms: _180  and  _182
REMARK   74  A    between atoms: _182  and  _183
REMARK   75  A    between atoms: _182  and  _185
REMARK   76  A    between atoms: _185  and  _186
REMARK   77  A    between atoms: _191  and  _193
REMARK   78  A    between atoms: _193  and  _194
REMARK   79  A    between atoms: _193  and  _196
REMARK   80  A    between atoms: _196  and  _197
REMARK   81  A    between atoms: _200  and  _202
REMARK   82  A    between atoms: _202  and  _203
REMARK   83  A    between atoms: _202  and  _205
REMARK   84  A    between atoms: _205  and  _206
REMARK   85  A    between atoms: _206  and  _207
REMARK   86  A    between atoms: _212  and  _214
REMARK   87  A    between atoms: _214  and  _215
REMARK   88  A    between atoms: _214  and  _217
REMARK   89  A    between atoms: _217  and  _218
REMARK   90  A    between atoms: _221  and  _223
REMARK   91  A    between atoms: _223  and  _224
REMARK   92  A    between atoms: _223  and  _226
REMARK   93  A    between atoms: _226  and  _227
REMARK   94  A    between atoms: _230  and  _232
REMARK   95  A    between atoms: _232  and  _233
REMARK   96  A    between atoms: _232  and  _235
REMARK   97  A    between atoms: _238  and  _240
REMARK   98  A    between atoms: _240  and  _241
REMARK   99  A    between atoms: _240  and  _243
REMARK  100  A    between atoms: _243  and  _244
REMARK  101  A    between atoms: _247  and  _249
REMARK  102  A    between atoms: _249  and  _250
REMARK  103  A    between atoms: _249  and  _252
REMARK  104  A    between atoms: _252  and  _253
REMARK  105  A    between atoms: _258  and  _259
REMARK  106  A    between atoms: _261  and  _263
REMARK  107  A    between atoms: _263  and  _264
REMARK  108  A    between atoms: _266  and  _268
REMARK  109  A    between atoms: _268  and  _269
REMARK  110  A    between atoms: _268  and  _271
REMARK  111  A    between atoms: _271  and  _272
REMARK  112  A    between atoms: _272  and  _273
REMARK  113  A    between atoms: _273  and  _274
REMARK  114  A    between atoms: _283  and  _285
REMARK  115  A    between atoms: _285  and  _286
REMARK  116  A    between atoms: _285  and  _288
REMARK  117  A    between atoms: _288  and  _289
REMARK  118  A    between atoms: _292  and  _294
REMARK  119  A    between atoms: _294  and  _295
REMARK  120  A    between atoms: _294  and  _297
REMARK  121  A    between atoms: _300  and  _302
REMARK  122  A    between atoms: _302  and  _303
REMARK  123  A    between atoms: _302  and  _305
REMARK  124  A    between atoms: _305  and  _306
REMARK  125  A    between atoms: _311  and  _313
REMARK  126  A    between atoms: _313  and  _314
REMARK  127  A    between atoms: _313  and  _316
REMARK  128  A    between atoms: _316  and  _317
REMARK  129  A    between atoms: _319  and  _321
REMARK  130  A    between atoms: _321  and  _322
REMARK  131  A    between atoms: _321  and  _324
REMARK  132  A    between atoms: _324  and  _325
REMARK  133  A    between atoms: _330  and  _331
REMARK  134  A    between atoms: _333  and  _335
REMARK  135  A    between atoms: _335  and  _336
REMARK  136  A    between atoms: _335  and  _338
REMARK  137  A    between atoms: _338  and  _339
REMARK  138  A    between atoms: _339  and  _340
REMARK  139  A    between atoms: _342  and  _344
REMARK  140  A    between atoms: _344  and  _345
REMARK  141  A    between atoms: _344  and  _347
REMARK  142  A    between atoms: _347  and  _348
REMARK  143  A    between atoms: _351  and  _353
REMARK  144  A    between atoms: _353  and  _354
REMARK  145  A    between atoms: _353  and  _356
REMARK  146  A    between atoms: _356  and  _357
REMARK  147  A    between atoms: _357  and  _358
REMARK  148  A    between atoms: _358  and  _359
REMARK  149  A    between atoms: _368  and  _370
REMARK  150  A    between atoms: _370  and  _371
REMARK  151  A    between atoms: _370  and  _373
REMARK  152  A    between atoms: _376  and  _378
REMARK  153  A    between atoms: _378  and  _379
REMARK  154  A    between atoms: _378  and  _381
REMARK  155  A    between atoms: _381  and  _382
REMARK  156  A    between atoms: _382  and  _383
REMARK  157  A    between atoms: _388  and  _390
REMARK  158  A    between atoms: _390  and  _391
REMARK  159  A    between atoms: _390  and  _393
REMARK  160  A    between atoms: _393  and  _394
REMARK  161  A    between atoms: _394  and  _395
REMARK  162  A    between atoms: _395  and  _396
REMARK  163  A    between atoms: _405  and  _407
REMARK  164  A    between atoms: _407  and  _408
REMARK  165  A    between atoms: _407  and  _410
REMARK  166  A    between atoms: _410  and  _411
REMARK  167  A    between atoms: _417  and  _418
REMARK  168  A    between atoms: _423  and  _425
REMARK  169  A    between atoms: _425  and  _426
REMARK  170  A    between atoms: _425  and  _428
REMARK  171  A    between atoms: _428  and  _429
REMARK  172  A    between atoms: _433  and  _434
REMARK  173  A    between atoms: _439  and  _441
REMARK  174  A    between atoms: _441  and  _442
REMARK  175  A    between atoms: _441  and  _444
REMARK  176  A    between atoms: _444  and  _445
REMARK  177  A    between atoms: _445  and  _446
REMARK  178  A    between atoms: _446  and  _447
REMARK  179  A    between atoms: _456  and  _458
REMARK  180  A    between atoms: _458  and  _459
REMARK  181  A    between atoms: _458  and  _461
REMARK  182  A    between atoms: _461  and  _462
REMARK  183  A    between atoms: _462  and  _463
REMARK  184  A    between atoms: _466  and  _468
REMARK  185  A    between atoms: _468  and  _469
REMARK  186  A    between atoms: _468  and  _471
REMARK  187  A    between atoms: _471  and  _472
REMARK  188  A    between atoms: _472  and  _473
REMARK  189  A    between atoms: _478  and  _480
REMARK  190  A    between atoms: _480  and  _481
REMARK  191  A    between atoms: _484  and  _486
REMARK  192  A    between atoms: _486  and  _487
REMARK  193  A    between atoms: _486  and  _489
REMARK  194  A    between atoms: _489  and  _490
REMARK  195  A    between atoms: _490  and  _491
REMARK  196  A    between atoms: _491  and  _492
REMARK  197  A    between atoms: _501  and  _503
REMARK  198  A    between atoms: _503  and  _504
REMARK  199  A    between atoms: _503  and  _506
REMARK  200  A    between atoms: _506  and  _507
REMARK  201  A    between atoms: _509  and  _511
REMARK  202  A    between atoms: _511  and  _512
REMARK  203  A    between atoms: _511  and  _514
REMARK  204  A    between atoms: _514  and  _515
REMARK  205  A    between atoms: _518  and  _520
REMARK  206  A    between atoms: _520  and  _521
REMARK  207  A    between atoms: _523  and  _525
REMARK  208  A    between atoms: _525  and  _526
REMARK  209  A    between atoms: _525  and  _528
REMARK  210  A    between atoms: _528  and  _529
REMARK  211  A    between atoms: _529  and  _530
REMARK  212  A    between atoms: _530  and  _531
REMARK  213  A    between atoms: _531  and  _532
REMARK  214  A    between atoms: _536  and  _538
REMARK  215  A    between atoms: _538  and  _539
REMARK  216  A    between atoms: _538  and  _541
REMARK  217  A    between atoms: _541  and  _542
REMARK  218  A    between atoms: _542  and  _543
REMARK  219  A    between atoms: _543  and  _544
REMARK  220  A    between atoms: _544  and  _545
REMARK  221  A    between atoms: _549  and  _551
REMARK  222  A    between atoms: _551  and  _552
REMARK  223  A    between atoms: _551  and  _554
REMARK  224  A    between atoms: _554  and  _555
REMARK  225  A    between atoms: _555  and  _556
REMARK  226  A    between atoms: _559  and  _561
REMARK  227  A    between atoms: _561  and  _562
REMARK  228  A    between atoms: _561  and  _564
REMARK  229  A    between atoms: _567  and  _569
REMARK  230  A    between atoms: _569  and  _570
REMARK  231  A    between atoms: _569  and  _572
REMARK  232  A    between atoms: _572  and  _573
REMARK  233  A    between atoms: _578  and  _579
REMARK                            x       y       z     vdW  Elec       q    Type
REMARK                         _______ _______ _______ _____ _____    ______ ____
ROOT
ATOM      1  O   HOH     1      43.616  26.310   9.231  0.00  0.00    +0.000 OA
ENDROOT
TORSDOF 0
REMARK  Name = ../refined-set-2016/2fzg/2fzg_pocket.pdb
REMARK  233 active torsions:
REMARK  status: ('A' for Active; 'I' for Inactive)
REMARK    1  A    between atoms: _1  and  _3
REMARK    2  A    between atoms: _3  and  _4
REMARK    3  A    between atoms: _3  and  _6
REMARK    4  A    between atoms: _6  and  _7
REMARK    5  A    between atoms: _13  and  _15
REMARK    6  A    between atoms: _15  and  _16
REMARK    7  A    between atoms: _15  and  _18
REMARK    8  A    between atoms: _18  and  _19
REMARK    9  A    between atoms: _19  and  _20
REMARK   10  A    between atoms: _23  and  _25
REMARK   11  A    between atoms: _25  and  _26
REMARK   12  A    between atoms: _29  and  _31
REMARK   13  A    between atoms: _31  and  _32
REMARK   14  A    between atoms: _31  and  _34
REMARK   15  A    between atoms: _34  and  _35
REMARK   16  A    between atoms: _37  and  _39
REMARK   17  A    between atoms: _39  and  _40
REMARK   18  A    between atoms: _39  and  _42
REMARK   19  A    between atoms: _42  and  _43
REMARK   20  A    between atoms: _46  and  _48
REMARK   21  A    between atoms: _48  and  _49
REMARK   22  A    between atoms: _48  and  _51
REMARK   23  A    between atoms: _51  and  _52
REMARK   24  A    between atoms: _52  and  _53
REMARK   25  A    between atoms: _53  and  _54
REMARK   26  A    between atoms: _63  and  _65
REMARK   27  A    between atoms: _65  and  _66
REMARK   28  A    between atoms: _65  and  _68
REMARK   29  A    between atoms: _68  and  _69
REMARK   30  A    between atoms: _72  and  _74
REMARK   31  A    between atoms: _74  and  _75
REMARK   32  A    between atoms: _74  and  _77
REMARK   33  A    between atoms: _77  and  _78
REMARK   34  A    between atoms: _78  and  _79
REMARK   35  A    between atoms: _79  and  _80
REMARK   36  A    between atoms: _89  and  _91
REMARK   37  A    between atoms: _91  and  _92
REMARK   38  A    between atoms: _91  and  _94
REMARK   39  A    between atoms: _94  and  _95
REMARK   40  A    between atoms: _98  and  _100
REMARK   41  A    between atoms: _100  and  _101
REMARK   42  A    between atoms: _100  and  _103
REMARK   43  A    between atoms: _103  and  _104
REMARK   44  A    between atoms: _106  and  _108
REMARK   45  A    between atoms: _108  and  _109
REMARK   46  A    between atoms: _108  and  _111
REMARK   47  A    between atoms: _111  and  _112
REMARK   48  A    between atoms: _118  and  _120
REMARK   49  A    between atoms: _120  and  _121
REMARK   50  A    between atoms: _120  and  _123
REMARK   51  A    between atoms: _123  and  _124
REMARK   52  A    between atoms: _124  and  _125
REMARK   53  A    between atoms: _125  and  _126
REMARK   54  A    between atoms: _135  and  _137
REMARK   55  A    between atoms: _137  and  _138
REMARK   56  A    between atoms: _141  and  _143
REMARK   57  A    between atoms: _143  and  _144
REMARK   58  A    between atoms: _146  and  _148
REMARK   59  A    between atoms: _148  and  _149
REMARK   60  A    between atoms: _148  and  _151
REMARK   61  A    between atoms: _151  and  _152
REMARK   62  A    between atoms: _155  and  _157
REMARK   63  A    between atoms: _157  and  _158
REMARK   64  A    between atoms: _160  and  _162
REMARK   65  A    between atoms: _162  and  _163
REMARK   66  A    between atoms: _162  and  _165
REMARK   67  A    between atoms: _165  and  _166
REMARK   68  A    between atoms: _168  and  _170
REMARK   69  A    between atoms: _170  and  _171
REMARK   70  A    between atoms: _170  and  _173
REMARK   71  A    between atoms: _173  and  _174
REMARK   72  A    between atoms: _174  and  _175
REMARK   73  A    between atoms: _180  and  _182
REMARK   74  A    between atoms: _182  and  _183
REMARK   75  A    between atoms: _182  and  _185
REMARK   76  A    between atoms: _185  and  _186
REMARK   77  A    between atoms: _191  and  _193
REMARK   78  A    between atoms: _193  and  _194
REMARK   79  A    between atoms: _193  and  _196
REMARK   80  A    between atoms: _196  and  _197
REMARK   81  A    between atoms: _200  and  _202
REMARK   82  A    between atoms: _202  and  _203
REMARK   83  A    between atoms: _202  and  _205
REMARK   84  A    between atoms: _205  and  _206
REMARK   85  A    between atoms: _206  and  _207
REMARK   86  A    between atoms: _212  and  _214
REMARK   87  A    between atoms: _214  and  _215
REMARK   88  A    between atoms: _214  and  _217
REMARK   89  A    between atoms: _217  and  _218
REMARK   90  A    between atoms: _221  and  _223
REMARK   91  A    between atoms: _223  and  _224
REMARK   92  A    between atoms: _223  and  _226
REMARK   93  A    between atoms: _226  and  _227
REMARK   94  A    between atoms: _230  and  _232
REMARK   95  A    between atoms: _232  and  _233
REMARK   96  A    between atoms: _232  and  _235
REMARK   97  A    between atoms: _238  and  _240
REMARK   98  A    between atoms: _240  and  _241
REMARK   99  A    between atoms: _240  and  _243
REMARK  100  A    between atoms: _243  and  _244
REMARK  101  A    between atoms: _247  and  _249
REMARK  102  A    between atoms: _249  and  _250
REMARK  103  A    between atoms: _249  and  _252
REMARK  104  A    between atoms: _252  and  _253
REMARK  105  A    between atoms: _258  and  _259
REMARK  106  A    between atoms: _261  and  _263
REMARK  107  A    between atoms: _263  and  _264
REMARK  108  A    between atoms: _266  and  _268
REMARK  109  A    between atoms: _268  and  _269
REMARK  110  A    between atoms: _268  and  _271
REMARK  111  A    between atoms: _271  and  _272
REMARK  112  A    between atoms: _272  and  _273
REMARK  113  A    between atoms: _273  and  _274
REMARK  114  A    between atoms: _283  and  _285
REMARK  115  A    between atoms: _285  and  _286
REMARK  116  A    between atoms: _285  and  _288
REMARK  117  A    between atoms: _288  and  _289
REMARK  118  A    between atoms: _292  and  _294
REMARK  119  A    between atoms: _294  and  _295
REMARK  120  A    between atoms: _294  and  _297
REMARK  121  A    between atoms: _300  and  _302
REMARK  122  A    between atoms: _302  and  _303
REMARK  123  A    between atoms: _302  and  _305
REMARK  124  A    between atoms: _305  and  _306
REMARK  125  A    between atoms: _311  and  _313
REMARK  126  A    between atoms: _313  and  _314
REMARK  127  A    between atoms: _313  and  _316
REMARK  128  A    between atoms: _316  and  _317
REMARK  129  A    between atoms: _319  and  _321
REMARK  130  A    between atoms: _321  and  _322
REMARK  131  A    between atoms: _321  and  _324
REMARK  132  A    between atoms: _324  and  _325
REMARK  133  A    between atoms: _330  and  _331
REMARK  134  A    between atoms: _333  and  _335
REMARK  135  A    between atoms: _335  and  _336
REMARK  136  A    between atoms: _335  and  _338
REMARK  137  A    between atoms: _338  and  _339
REMARK  138  A    between atoms: _339  and  _340
REMARK  139  A    between atoms: _342  and  _344
REMARK  140  A    between atoms: _344  and  _345
REMARK  141  A    between atoms: _344  and  _347
REMARK  142  A    between atoms: _347  and  _348
REMARK  143  A    between atoms: _351  and  _353
REMARK  144  A    between atoms: _353  and  _354
REMARK  145  A    between atoms: _353  and  _356
REMARK  146  A    between atoms: _356  and  _357
REMARK  147  A    between atoms: _357  and  _358
REMARK  148  A    between atoms: _358  and  _359
REMARK  149  A    between atoms: _368  and  _370
REMARK  150  A    between atoms: _370  and  _371
REMARK  151  A    between atoms: _370  and  _373
REMARK  152  A    between atoms: _376  and  _378
REMARK  153  A    between atoms: _378  and  _379
REMARK  154  A    between atoms: _378  and  _381
REMARK  155  A    between atoms: _381  and  _382
REMARK  156  A    between atoms: _382  and  _383
REMARK  157  A    between atoms: _388  and  _390
REMARK  158  A    between atoms: _390  and  _391
REMARK  159  A    between atoms: _390  and  _393
REMARK  160  A    between atoms: _393  and  _394
REMARK  161  A    between atoms: _394  and  _395
REMARK  162  A    between atoms: _395  and  _396
REMARK  163  A    between atoms: _405  and  _407
REMARK  164  A    between atoms: _407  and  _408
REMARK  165  A    between atoms: _407  and  _410
REMARK  166  A    between atoms: _410  and  _411
REMARK  167  A    between atoms: _417  and  _418
REMARK  168  A    between atoms: _423  and  _425
REMARK  169  A    between atoms: _425  and  _426
REMARK  170  A    between atoms: _425  and  _428
REMARK  171  A    between atoms: _428  and  _429
REMARK  172  A    between atoms: _433  and  _434
REMARK  173  A    between atoms: _439  and  _441
REMARK  174  A    between atoms: _441  and  _442
REMARK  175  A    between atoms: _441  and  _444
REMARK  176  A    between atoms: _444  and  _445
REMARK  177  A    between atoms: _445  and  _446
REMARK  178  A    between atoms: _446  and  _447
REMARK  179  A    between atoms: _456  and  _458
REMARK  180  A    between atoms: _458  and  _459
REMARK  181  A    between atoms: _458  and  _461
REMARK  182  A    between atoms: _461  and  _462
REMARK  183  A    between atoms: _462  and  _463
REMARK  184  A    between atoms: _466  and  _468
REMARK  185  A    between atoms: _468  and  _469
REMARK  186  A    between atoms: _468  and  _471
REMARK  187  A    between atoms: _471  and  _472
REMARK  188  A    between atoms: _472  and  _473
REMARK  189  A    between atoms: _478  and  _480
REMARK  190  A    between atoms: _480  and  _481
REMARK  191  A    between atoms: _484  and  _486
REMARK  192  A    between atoms: _486  and  _487
REMARK  193  A    between atoms: _486  and  _489
REMARK  194  A    between atoms: _489  and  _490
REMARK  195  A    between atoms: _490  and  _491
REMARK  196  A    between atoms: _491  and  _492
REMARK  197  A    between atoms: _501  and  _503
REMARK  198  A    between atoms: _503  and  _504
REMARK  199  A    between atoms: _503  and  _506
REMARK  200  A    between atoms: _506  and  _507
REMARK  201  A    between atoms: _509  and  _511
REMARK  202  A    between atoms: _511  and  _512
REMARK  203  A    between atoms: _511  and  _514
REMARK  204  A    between atoms: _514  and  _515
REMARK  205  A    between atoms: _518  and  _520
REMARK  206  A    between atoms: _520  and  _521
REMARK  207  A    between atoms: _523  and  _525
REMARK  208  A    between atoms: _525  and  _526
REMARK  209  A    between atoms: _525  and  _528
REMARK  210  A    between atoms: _528  and  _529
REMARK  211  A    between atoms: _529  and  _530
REMARK  212  A    between atoms: _530  and  _531
REMARK  213  A    between atoms: _531  and  _532
REMARK  214  A    between atoms: _536  and  _538
REMARK  215  A    between atoms: _538  and  _539
REMARK  216  A    between atoms: _538  and  _541
REMARK  217  A    between atoms: _541  and  _542
REMARK  218  A    between atoms: _542  and  _543
REMARK  219  A    between atoms: _543  and  _544
REMARK  220  A    between atoms: _544  and  _545
REMARK  221  A    between atoms: _549  and  _551
REMARK  222  A    between atoms: _551  and  _552
REMARK  223  A    between atoms: _551  and  _554
REMARK  224  A    between atoms: _554  and  _555
REMARK  225  A    between atoms: _555  and  _556
REMARK  226  A    between atoms: _559  and  _561
REMARK  227  A    between atoms: _561  and  _562
REMARK  228  A    between atoms: _561  and  _564
REMARK  229  A    between atoms: _567  and  _569
REMARK  230  A    between atoms: _569  and  _570
REMARK  231  A    between atoms: _569  and  _572
REMARK  232  A    between atoms: _572  and  _573
REMARK  233  A    between atoms: _578  and  _579
REMARK                            x       y       z     vdW  Elec       q    Type
REMARK                         _______ _______ _______ _____ _____    ______ ____
ROOT
ATOM      1  O   HOH     1      33.079  29.579  13.406  0.00  0.00    +0.000 OA
ENDROOT
TORSDOF 0
REMARK  Name = ../refined-set-2016/2fzg/2fzg_pocket.pdb
REMARK  233 active torsions:
REMARK  status: ('A' for Active; 'I' for Inactive)
REMARK    1  A    between atoms: _1  and  _3
REMARK    2  A    between atoms: _3  and  _4
REMARK    3  A    between atoms: _3  and  _6
REMARK    4  A    between atoms: _6  and  _7
REMARK    5  A    between atoms: _13  and  _15
REMARK    6  A    between atoms: _15  and  _16
REMARK    7  A    between atoms: _15  and  _18
REMARK    8  A    between atoms: _18  and  _19
REMARK    9  A    between atoms: _19  and  _20
REMARK   10  A    between atoms: _23  and  _25
REMARK   11  A    between atoms: _25  and  _26
REMARK   12  A    between atoms: _29  and  _31
REMARK   13  A    between atoms: _31  and  _32
REMARK   14  A    between atoms: _31  and  _34
REMARK   15  A    between atoms: _34  and  _35
REMARK   16  A    between atoms: _37  and  _39
REMARK   17  A    between atoms: _39  and  _40
REMARK   18  A    between atoms: _39  and  _42
REMARK   19  A    between atoms: _42  and  _43
REMARK   20  A    between atoms: _46  and  _48
REMARK   21  A    between atoms: _48  and  _49
REMARK   22  A    between atoms: _48  and  _51
REMARK   23  A    between atoms: _51  and  _52
REMARK   24  A    between atoms: _52  and  _53
REMARK   25  A    between atoms: _53  and  _54
REMARK   26  A    between atoms: _63  and  _65
REMARK   27  A    between atoms: _65  and  _66
REMARK   28  A    between atoms: _65  and  _68
REMARK   29  A    between atoms: _68  and  _69
REMARK   30  A    between atoms: _72  and  _74
REMARK   31  A    between atoms: _74  and  _75
REMARK   32  A    between atoms: _74  and  _77
REMARK   33  A    between atoms: _77  and  _78
REMARK   34  A    between atoms: _78  and  _79
REMARK   35  A    between atoms: _79  and  _80
REMARK   36  A    between atoms: _89  and  _91
REMARK   37  A    between atoms: _91  and  _92
REMARK   38  A    between atoms: _91  and  _94
REMARK   39  A    between atoms: _94  and  _95
REMARK   40  A    between atoms: _98  and  _100
REMARK   41  A    between atoms: _100  and  _101
REMARK   42  A    between atoms: _100  and  _103
REMARK   43  A    between atoms: _103  and  _104
REMARK   44  A    between atoms: _106  and  _108
REMARK   45  A    between atoms: _108  and  _109
REMARK   46  A    between atoms: _108  and  _111
REMARK   47  A    between atoms: _111  and  _112
REMARK   48  A    between atoms: _118  and  _120
REMARK   49  A    between atoms: _120  and  _121
REMARK   50  A    between atoms: _120  and  _123
REMARK   51  A    between atoms: _123  and  _124
REMARK   52  A    between atoms: _124  and  _125
REMARK   53  A    between atoms: _125  and  _126
REMARK   54  A    between atoms: _135  and  _137
REMARK   55  A    between atoms: _137  and  _138
REMARK   56  A    between atoms: _141  and  _143
REMARK   57  A    between atoms: _143  and  _144
REMARK   58  A    between atoms: _146  and  _148
REMARK   59  A    between atoms: _148  and  _149
REMARK   60  A    between atoms: _148  and  _151
REMARK   61  A    between atoms: _151  and  _152
REMARK   62  A    between atoms: _155  and  _157
REMARK   63  A    between atoms: _157  and  _158
REMARK   64  A    between atoms: _160  and  _162
REMARK   65  A    between atoms: _162  and  _163
REMARK   66  A    between atoms: _162  and  _165
REMARK   67  A    between atoms: _165  and  _166
REMARK   68  A    between atoms: _168  and  _170
REMARK   69  A    between atoms: _170  and  _171
REMARK   70  A    between atoms: _170  and  _173
REMARK   71  A    between atoms: _173  and  _174
REMARK   72  A    between atoms: _174  and  _175
REMARK   73  A    between atoms: _180  and  _182
REMARK   74  A    between atoms: _182  and  _183
REMARK   75  A    between atoms: _182  and  _185
REMARK   76  A    between atoms: _185  and  _186
REMARK   77  A    between atoms: _191  and  _193
REMARK   78  A    between atoms: _193  and  _194
REMARK   79  A    between atoms: _193  and  _196
REMARK   80  A    between atoms: _196  and  _197
REMARK   81  A    between atoms: _200  and  _202
REMARK   82  A    between atoms: _202  and  _203
REMARK   83  A    between atoms: _202  and  _205
REMARK   84  A    between atoms: _205  and  _206
REMARK   85  A    between atoms: _206  and  _207
REMARK   86  A    between atoms: _212  and  _214
REMARK   87  A    between atoms: _214  and  _215
REMARK   88  A    between atoms: _214  and  _217
REMARK   89  A    between atoms: _217  and  _218
REMARK   90  A    between atoms: _221  and  _223
REMARK   91  A    between atoms: _223  and  _224
REMARK   92  A    between atoms: _223  and  _226
REMARK   93  A    between atoms: _226  and  _227
REMARK   94  A    between atoms: _230  and  _232
REMARK   95  A    between atoms: _232  and  _233
REMARK   96  A    between atoms: _232  and  _235
REMARK   97  A    between atoms: _238  and  _240
REMARK   98  A    between atoms: _240  and  _241
REMARK   99  A    between atoms: _240  and  _243
REMARK  100  A    between atoms: _243  and  _244
REMARK  101  A    between atoms: _247  and  _249
REMARK  102  A    between atoms: _249  and  _250
REMARK  103  A    between atoms: _249  and  _252
REMARK  104  A    between atoms: _252  and  _253
REMARK  105  A    between atoms: _258  and  _259
REMARK  106  A    between atoms: _261  and  _263
REMARK  107  A    between atoms: _263  and  _264
REMARK  108  A    between atoms: _266  and  _268
REMARK  109  A    between atoms: _268  and  _269
REMARK  110  A    between atoms: _268  and  _271
REMARK  111  A    between atoms: _271  and  _272
REMARK  112  A    between atoms: _272  and  _273
REMARK  113  A    between atoms: _273  and  _274
REMARK  114  A    between atoms: _283  and  _285
REMARK  115  A    between atoms: _285  and  _286
REMARK  116  A    between atoms: _285  and  _288
REMARK  117  A    between atoms: _288  and  _289
REMARK  118  A    between atoms: _292  and  _294
REMARK  119  A    between atoms: _294  and  _295
REMARK  120  A    between atoms: _294  and  _297
REMARK  121  A    between atoms: _300  and  _302
REMARK  122  A    between atoms: _302  and  _303
REMARK  123  A    between atoms: _302  and  _305
REMARK  124  A    between atoms: _305  and  _306
REMARK  125  A    between atoms: _311  and  _313
REMARK  126  A    between atoms: _313  and  _314
REMARK  127  A    between atoms: _313  and  _316
REMARK  128  A    between atoms: _316  and  _317
REMARK  129  A    between atoms: _319  and  _321
REMARK  130  A    between atoms: _321  and  _322
REMARK  131  A    between atoms: _321  and  _324
REMARK  132  A    between atoms: _324  and  _325
REMARK  133  A    between atoms: _330  and  _331
REMARK  134  A    between atoms: _333  and  _335
REMARK  135  A    between atoms: _335  and  _336
REMARK  136  A    between atoms: _335  and  _338
REMARK  137  A    between atoms: _338  and  _339
REMARK  138  A    between atoms: _339  and  _340
REMARK  139  A    between atoms: _342  and  _344
REMARK  140  A    between atoms: _344  and  _345
REMARK  141  A    between atoms: _344  and  _347
REMARK  142  A    between atoms: _347  and  _348
REMARK  143  A    between atoms: _351  and  _353
REMARK  144  A    between atoms: _353  and  _354
REMARK  145  A    between atoms: _353  and  _356
REMARK  146  A    between atoms: _356  and  _357
REMARK  147  A    between atoms: _357  and  _358
REMARK  148  A    between atoms: _358  and  _359
REMARK  149  A    between atoms: _368  and  _370
REMARK  150  A    between atoms: _370  and  _371
REMARK  151  A    between atoms: _370  and  _373
REMARK  152  A    between atoms: _376  and  _378
REMARK  153  A    between atoms: _378  and  _379
REMARK  154  A    between atoms: _378  and  _381
REMARK  155  A    between atoms: _381  and  _382
REMARK  156  A    between atoms: _382  and  _383
REMARK  157  A    between atoms: _388  and  _390
REMARK  158  A    between atoms: _390  and  _391
REMARK  159  A    between atoms: _390  and  _393
REMARK  160  A    between atoms: _393  and  _394
REMARK  161  A    between atoms: _394  and  _395
REMARK  162  A    between atoms: _395  and  _396
REMARK  163  A    between atoms: _405  and  _407
REMARK  164  A    between atoms: _407  and  _408
REMARK  165  A    between atoms: _407  and  _410
REMARK  166  A    between atoms: _410  and  _411
REMARK  167  A    between atoms: _417  and  _418
REMARK  168  A    between atoms: _423  and  _425
REMARK  169  A    between atoms: _425  and  _426
REMARK  170  A    between atoms: _425  and  _428
REMARK  171  A    between atoms: _428  and  _429
REMARK  172  A    between atoms: _433  and  _434
REMARK  173  A    between atoms: _439  and  _441
REMARK  174  A    between atoms: _441  and  _442
REMARK  175  A    between atoms: _441  and  _444
REMARK  176  A    between atoms: _444  and  _445
REMARK  177  A    between atoms: _445  and  _446
REMARK  178  A    between atoms: _446  and  _447
REMARK  179  A    between atoms: _456  and  _458
REMARK  180  A    between atoms: _458  and  _459
REMARK  181  A    between atoms: _458  and  _461
REMARK  182  A    between atoms: _461  and  _462
REMARK  183  A    between atoms: _462  and  _463
REMARK  184  A    between atoms: _466  and  _468
REMARK  185  A    between atoms: _468  and  _469
REMARK  186  A    between atoms: _468  and  _471
REMARK  187  A    between atoms: _471  and  _472
REMARK  188  A    between atoms: _472  and  _473
REMARK  189  A    between atoms: _478  and  _480
REMARK  190  A    between atoms: _480  and  _481
REMARK  191  A    between atoms: _484  and  _486
REMARK  192  A    between atoms: _486  and  _487
REMARK  193  A    between atoms: _486  and  _489
REMARK  194  A    between atoms: _489  and  _490
REMARK  195  A    between atoms: _490  and  _491
REMARK  196  A    between atoms: _491  and  _492
REMARK  197  A    between atoms: _501  and  _503
REMARK  198  A    between atoms: _503  and  _504
REMARK  199  A    between atoms: _503  and  _506
REMARK  200  A    between atoms: _506  and  _507
REMARK  201  A    between atoms: _509  and  _511
REMARK  202  A    between atoms: _511  and  _512
REMARK  203  A    between atoms: _511  and  _514
REMARK  204  A    between atoms: _514  and  _515
REMARK  205  A    between atoms: _518  and  _520
REMARK  206  A    between atoms: _520  and  _521
REMARK  207  A    between atoms: _523  and  _525
REMARK  208  A    between atoms: _525  and  _526
REMARK  209  A    between atoms: _525  and  _528
REMARK  210  A    between atoms: _528  and  _529
REMARK  211  A    between atoms: _529  and  _530
REMARK  212  A    between atoms: _530  and  _531
REMARK  213  A    between atoms: _531  and  _532
REMARK  214  A    between atoms: _536  and  _538
REMARK  215  A    between atoms: _538  and  _539
REMARK  216  A    between atoms: _538  and  _541
REMARK  217  A    between atoms: _541  and  _542
REMARK  218  A    between atoms: _542  and  _543
REMARK  219  A    between atoms: _543  and  _544
REMARK  220  A    between atoms: _544  and  _545
REMARK  221  A    between atoms: _549  and  _551
REMARK  222  A    between atoms: _551  and  _552
REMARK  223  A    between atoms: _551  and  _554
REMARK  224  A    between atoms: _554  and  _555
REMARK  225  A    between atoms: _555  and  _556
REMARK  226  A    between atoms: _559  and  _561
REMARK  227  A    between atoms: _561  and  _562
REMARK  228  A    between atoms: _561  and  _564
REMARK  229  A    between atoms: _567  and  _569
REMARK  230  A    between atoms: _569  and  _570
REMARK  231  A    between atoms: _569  and  _572
REMARK  232  A    between atoms: _572  and  _573
REMARK  233  A    between atoms: _578  and  _579
REMARK                            x       y       z     vdW  Elec       q    Type
REMARK                         _______ _______ _______ _____ _____    ______ ____
ROOT
ATOM      1  O   HOH     1      36.473  29.625  27.155  0.00  0.00    +0.000 OA
ENDROOT
TORSDOF 0
REMARK  Name = ../refined-set-2016/2fzg/2fzg_pocket.pdb
REMARK  233 active torsions:
REMARK  status: ('A' for Active; 'I' for Inactive)
REMARK    1  A    between atoms: _1  and  _3
REMARK    2  A    between atoms: _3  and  _4
REMARK    3  A    between atoms: _3  and  _6
REMARK    4  A    between atoms: _6  and  _7
REMARK    5  A    between atoms: _13  and  _15
REMARK    6  A    between atoms: _15  and  _16
REMARK    7  A    between atoms: _15  and  _18
REMARK    8  A    between atoms: _18  and  _19
REMARK    9  A    between atoms: _19  and  _20
REMARK   10  A    between atoms: _23  and  _25
REMARK   11  A    between atoms: _25  and  _26
REMARK   12  A    between atoms: _29  and  _31
REMARK   13  A    between atoms: _31  and  _32
REMARK   14  A    between atoms: _31  and  _34
REMARK   15  A    between atoms: _34  and  _35
REMARK   16  A    between atoms: _37  and  _39
REMARK   17  A    between atoms: _39  and  _40
REMARK   18  A    between atoms: _39  and  _42
REMARK   19  A    between atoms: _42  and  _43
REMARK   20  A    between atoms: _46  and  _48
REMARK   21  A    between atoms: _48  and  _49
REMARK   22  A    between atoms: _48  and  _51
REMARK   23  A    between atoms: _51  and  _52
REMARK   24  A    between atoms: _52  and  _53
REMARK   25  A    between atoms: _53  and  _54
REMARK   26  A    between atoms: _63  and  _65
REMARK   27  A    between atoms: _65  and  _66
REMARK   28  A    between atoms: _65  and  _68
REMARK   29  A    between atoms: _68  and  _69
REMARK   30  A    between atoms: _72  and  _74
REMARK   31  A    between atoms: _74  and  _75
REMARK   32  A    between atoms: _74  and  _77
REMARK   33  A    between atoms: _77  and  _78
REMARK   34  A    between atoms: _78  and  _79
REMARK   35  A    between atoms: _79  and  _80
REMARK   36  A    between atoms: _89  and  _91
REMARK   37  A    between atoms: _91  and  _92
REMARK   38  A    between atoms: _91  and  _94
REMARK   39  A    between atoms: _94  and  _95
REMARK   40  A    between atoms: _98  and  _100
REMARK   41  A    between atoms: _100  and  _101
REMARK   42  A    between atoms: _100  and  _103
REMARK   43  A    between atoms: _103  and  _104
REMARK   44  A    between atoms: _106  and  _108
REMARK   45  A    between atoms: _108  and  _109
REMARK   46  A    between atoms: _108  and  _111
REMARK   47  A    between atoms: _111  and  _112
REMARK   48  A    between atoms: _118  and  _120
REMARK   49  A    between atoms: _120  and  _121
REMARK   50  A    between atoms: _120  and  _123
REMARK   51  A    between atoms: _123  and  _124
REMARK   52  A    between atoms: _124  and  _125
REMARK   53  A    between atoms: _125  and  _126
REMARK   54  A    between atoms: _135  and  _137
REMARK   55  A    between atoms: _137  and  _138
REMARK   56  A    between atoms: _141  and  _143
REMARK   57  A    between atoms: _143  and  _144
REMARK   58  A    between atoms: _146  and  _148
REMARK   59  A    between atoms: _148  and  _149
REMARK   60  A    between atoms: _148  and  _151
REMARK   61  A    between atoms: _151  and  _152
REMARK   62  A    between atoms: _155  and  _157
REMARK   63  A    between atoms: _157  and  _158
REMARK   64  A    between atoms: _160  and  _162
REMARK   65  A    between atoms: _162  and  _163
REMARK   66  A    between atoms: _162  and  _165
REMARK   67  A    between atoms: _165  and  _166
REMARK   68  A    between atoms: _168  and  _170
REMARK   69  A    between atoms: _170  and  _171
REMARK   70  A    between atoms: _170  and  _173
REMARK   71  A    between atoms: _173  and  _174
REMARK   72  A    between atoms: _174  and  _175
REMARK   73  A    between atoms: _180  and  _182
REMARK   74  A    between atoms: _182  and  _183
REMARK   75  A    between atoms: _182  and  _185
REMARK   76  A    between atoms: _185  and  _186
REMARK   77  A    between atoms: _191  and  _193
REMARK   78  A    between atoms: _193  and  _194
REMARK   79  A    between atoms: _193  and  _196
REMARK   80  A    between atoms: _196  and  _197
REMARK   81  A    between atoms: _200  and  _202
REMARK   82  A    between atoms: _202  and  _203
REMARK   83  A    between atoms: _202  and  _205
REMARK   84  A    between atoms: _205  and  _206
REMARK   85  A    between atoms: _206  and  _207
REMARK   86  A    between atoms: _212  and  _214
REMARK   87  A    between atoms: _214  and  _215
REMARK   88  A    between atoms: _214  and  _217
REMARK   89  A    between atoms: _217  and  _218
REMARK   90  A    between atoms: _221  and  _223
REMARK   91  A    between atoms: _223  and  _224
REMARK   92  A    between atoms: _223  and  _226
REMARK   93  A    between atoms: _226  and  _227
REMARK   94  A    between atoms: _230  and  _232
REMARK   95  A    between atoms: _232  and  _233
REMARK   96  A    between atoms: _232  and  _235
REMARK   97  A    between atoms: _238  and  _240
REMARK   98  A    between atoms: _240  and  _241
REMARK   99  A    between atoms: _240  and  _243
REMARK  100  A    between atoms: _243  and  _244
REMARK  101  A    between atoms: _247  and  _249
REMARK  102  A    between atoms: _249  and  _250
REMARK  103  A    between atoms: _249  and  _252
REMARK  104  A    between atoms: _252  and  _253
REMARK  105  A    between atoms: _258  and  _259
REMARK  106  A    between atoms: _261  and  _263
REMARK  107  A    between atoms: _263  and  _264
REMARK  108  A    between atoms: _266  and  _268
REMARK  109  A    between atoms: _268  and  _269
REMARK  110  A    between atoms: _268  and  _271
REMARK  111  A    between atoms: _271  and  _272
REMARK  112  A    between atoms: _272  and  _273
REMARK  113  A    between atoms: _273  and  _274
REMARK  114  A    between atoms: _283  and  _285
REMARK  115  A    between atoms: _285  and  _286
REMARK  116  A    between atoms: _285  and  _288
REMARK  117  A    between atoms: _288  and  _289
REMARK  118  A    between atoms: _292  and  _294
REMARK  119  A    between atoms: _294  and  _295
REMARK  120  A    between atoms: _294  and  _297
REMARK  121  A    between atoms: _300  and  _302
REMARK  122  A    between atoms: _302  and  _303
REMARK  123  A    between atoms: _302  and  _305
REMARK  124  A    between atoms: _305  and  _306
REMARK  125  A    between atoms: _311  and  _313
REMARK  126  A    between atoms: _313  and  _314
REMARK  127  A    between atoms: _313  and  _316
REMARK  128  A    between atoms: _316  and  _317
REMARK  129  A    between atoms: _319  and  _321
REMARK  130  A    between atoms: _321  and  _322
REMARK  131  A    between atoms: _321  and  _324
REMARK  132  A    between atoms: _324  and  _325
REMARK  133  A    between atoms: _330  and  _331
REMARK  134  A    between atoms: _333  and  _335
REMARK  135  A    between atoms: _335  and  _336
REMARK  136  A    between atoms: _335  and  _338
REMARK  137  A    between atoms: _338  and  _339
REMARK  138  A    between atoms: _339  and  _340
REMARK  139  A    between atoms: _342  and  _344
REMARK  140  A    between atoms: _344  and  _345
REMARK  141  A    between atoms: _344  and  _347
REMARK  142  A    between atoms: _347  and  _348
REMARK  143  A    between atoms: _351  and  _353
REMARK  144  A    between atoms: _353  and  _354
REMARK  145  A    between atoms: _353  and  _356
REMARK  146  A    between atoms: _356  and  _357
REMARK  147  A    between atoms: _357  and  _358
REMARK  148  A    between atoms: _358  and  _359
REMARK  149  A    between atoms: _368  and  _370
REMARK  150  A    between atoms: _370  and  _371
REMARK  151  A    between atoms: _370  and  _373
REMARK  152  A    between atoms: _376  and  _378
REMARK  153  A    between atoms: _378  and  _379
REMARK  154  A    between atoms: _378  and  _381
REMARK  155  A    between atoms: _381  and  _382
REMARK  156  A    between atoms: _382  and  _383
REMARK  157  A    between atoms: _388  and  _390
REMARK  158  A    between atoms: _390  and  _391
REMARK  159  A    between atoms: _390  and  _393
REMARK  160  A    between atoms: _393  and  _394
REMARK  161  A    between atoms: _394  and  _395
REMARK  162  A    between atoms: _395  and  _396
REMARK  163  A    between atoms: _405  and  _407
REMARK  164  A    between atoms: _407  and  _408
REMARK  165  A    between atoms: _407  and  _410
REMARK  166  A    between atoms: _410  and  _411
REMARK  167  A    between atoms: _417  and  _418
REMARK  168  A    between atoms: _423  and  _425
REMARK  169  A    between atoms: _425  and  _426
REMARK  170  A    between atoms: _425  and  _428
REMARK  171  A    between atoms: _428  and  _429
REMARK  172  A    between atoms: _433  and  _434
REMARK  173  A    between atoms: _439  and  _441
REMARK  174  A    between atoms: _441  and  _442
REMARK  175  A    between atoms: _441  and  _444
REMARK  176  A    between atoms: _444  and  _445
REMARK  177  A    between atoms: _445  and  _446
REMARK  178  A    between atoms: _446  and  _447
REMARK  179  A    between atoms: _456  and  _458
REMARK  180  A    between atoms: _458  and  _459
REMARK  181  A    between atoms: _458  and  _461
REMARK  182  A    between atoms: _461  and  _462
REMARK  183  A    between atoms: _462  and  _463
REMARK  184  A    between atoms: _466  and  _468
REMARK  185  A    between atoms: _468  and  _469
REMARK  186  A    between atoms: _468  and  _471
REMARK  187  A    between atoms: _471  and  _472
REMARK  188  A    between atoms: _472  and  _473
REMARK  189  A    between atoms: _478  and  _480
REMARK  190  A    between atoms: _480  and  _481
REMARK  191  A    between atoms: _484  and  _486
REMARK  192  A    between atoms: _486  and  _487
REMARK  193  A    between atoms: _486  and  _489
REMARK  194  A    between atoms: _489  and  _490
REMARK  195  A    between atoms: _490  and  _491
REMARK  196  A    between atoms: _491  and  _492
REMARK  197  A    between atoms: _501  and  _503
REMARK  198  A    between atoms: _503  and  _504
REMARK  199  A    between atoms: _503  and  _506
REMARK  200  A    between atoms: _506  and  _507
REMARK  201  A    between atoms: _509  and  _511
REMARK  202  A    between atoms: _511  and  _512
REMARK  203  A    between atoms: _511  and  _514
REMARK  204  A    between atoms: _514  and  _515
REMARK  205  A    between atoms: _518  and  _520
REMARK  206  A    between atoms: _520  and  _521
REMARK  207  A    between atoms: _523  and  _525
REMARK  208  A    between atoms: _525  and  _526
REMARK  209  A    between atoms: _525  and  _528
REMARK  210  A    between atoms: _528  and  _529
REMARK  211  A    between atoms: _529  and  _530
REMARK  212  A    between atoms: _530  and  _531
REMARK  213  A    between atoms: _531  and  _532
REMARK  214  A    between atoms: _536  and  _538
REMARK  215  A    between atoms: _538  and  _539
REMARK  216  A    between atoms: _538  and  _541
REMARK  217  A    between atoms: _541  and  _542
REMARK  218  A    between atoms: _542  and  _543
REMARK  219  A    between atoms: _543  and  _544
REMARK  220  A    between atoms: _544  and  _545
REMARK  221  A    between atoms: _549  and  _551
REMARK  222  A    between atoms: _551  and  _552
REMARK  223  A    between atoms: _551  and  _554
REMARK  224  A    between atoms: _554  and  _555
REMARK  225  A    between atoms: _555  and  _556
REMARK  226  A    between atoms: _559  and  _561
REMARK  227  A    between atoms: _561  and  _562
REMARK  228  A    between atoms: _561  and  _564
REMARK  229  A    between atoms: _567  and  _569
REMARK  230  A    between atoms: _569  and  _570
REMARK  231  A    between atoms: _569  and  _572
REMARK  232  A    between atoms: _572  and  _573
REMARK  233  A    between atoms: _578  and  _579
REMARK                            x       y       z     vdW  Elec       q    Type
REMARK                         _______ _______ _______ _____ _____    ______ ____
ROOT
ATOM      1  O   HOH     1      51.810  32.693  17.030  0.00  0.00    +0.000 OA
ENDROOT
TORSDOF 0
REMARK  Name = ../refined-set-2016/2fzg/2fzg_pocket.pdb
REMARK  233 active torsions:
REMARK  status: ('A' for Active; 'I' for Inactive)
REMARK    1  A    between atoms: _1  and  _3
REMARK    2  A    between atoms: _3  and  _4
REMARK    3  A    between atoms: _3  and  _6
REMARK    4  A    between atoms: _6  and  _7
REMARK    5  A    between atoms: _13  and  _15
REMARK    6  A    between atoms: _15  and  _16
REMARK    7  A    between atoms: _15  and  _18
REMARK    8  A    between atoms: _18  and  _19
REMARK    9  A    between atoms: _19  and  _20
REMARK   10  A    between atoms: _23  and  _25
REMARK   11  A    between atoms: _25  and  _26
REMARK   12  A    between atoms: _29  and  _31
REMARK   13  A    between atoms: _31  and  _32
REMARK   14  A    between atoms: _31  and  _34
REMARK   15  A    between atoms: _34  and  _35
REMARK   16  A    between atoms: _37  and  _39
REMARK   17  A    between atoms: _39  and  _40
REMARK   18  A    between atoms: _39  and  _42
REMARK   19  A    between atoms: _42  and  _43
REMARK   20  A    between atoms: _46  and  _48
REMARK   21  A    between atoms: _48  and  _49
REMARK   22  A    between atoms: _48  and  _51
REMARK   23  A    between atoms: _51  and  _52
REMARK   24  A    between atoms: _52  and  _53
REMARK   25  A    between atoms: _53  and  _54
REMARK   26  A    between atoms: _63  and  _65
REMARK   27  A    between atoms: _65  and  _66
REMARK   28  A    between atoms: _65  and  _68
REMARK   29  A    between atoms: _68  and  _69
REMARK   30  A    between atoms: _72  and  _74
REMARK   31  A    between atoms: _74  and  _75
REMARK   32  A    between atoms: _74  and  _77
REMARK   33  A    between atoms: _77  and  _78
REMARK   34  A    between atoms: _78  and  _79
REMARK   35  A    between atoms: _79  and  _80
REMARK   36  A    between atoms: _89  and  _91
REMARK   37  A    between atoms: _91  and  _92
REMARK   38  A    between atoms: _91  and  _94
REMARK   39  A    between atoms: _94  and  _95
REMARK   40  A    between atoms: _98  and  _100
REMARK   41  A    between atoms: _100  and  _101
REMARK   42  A    between atoms: _100  and  _103
REMARK   43  A    between atoms: _103  and  _104
REMARK   44  A    between atoms: _106  and  _108
REMARK   45  A    between atoms: _108  and  _109
REMARK   46  A    between atoms: _108  and  _111
REMARK   47  A    between atoms: _111  and  _112
REMARK   48  A    between atoms: _118  and  _120
REMARK   49  A    between atoms: _120  and  _121
REMARK   50  A    between atoms: _120  and  _123
REMARK   51  A    between atoms: _123  and  _124
REMARK   52  A    between atoms: _124  and  _125
REMARK   53  A    between atoms: _125  and  _126
REMARK   54  A    between atoms: _135  and  _137
REMARK   55  A    between atoms: _137  and  _138
REMARK   56  A    between atoms: _141  and  _143
REMARK   57  A    between atoms: _143  and  _144
REMARK   58  A    between atoms: _146  and  _148
REMARK   59  A    between atoms: _148  and  _149
REMARK   60  A    between atoms: _148  and  _151
REMARK   61  A    between atoms: _151  and  _152
REMARK   62  A    between atoms: _155  and  _157
REMARK   63  A    between atoms: _157  and  _158
REMARK   64  A    between atoms: _160  and  _162
REMARK   65  A    between atoms: _162  and  _163
REMARK   66  A    between atoms: _162  and  _165
REMARK   67  A    between atoms: _165  and  _166
REMARK   68  A    between atoms: _168  and  _170
REMARK   69  A    between atoms: _170  and  _171
REMARK   70  A    between atoms: _170  and  _173
REMARK   71  A    between atoms: _173  and  _174
REMARK   72  A    between atoms: _174  and  _175
REMARK   73  A    between atoms: _180  and  _182
REMARK   74  A    between atoms: _182  and  _183
REMARK   75  A    between atoms: _182  and  _185
REMARK   76  A    between atoms: _185  and  _186
REMARK   77  A    between atoms: _191  and  _193
REMARK   78  A    between atoms: _193  and  _194
REMARK   79  A    between atoms: _193  and  _196
REMARK   80  A    between atoms: _196  and  _197
REMARK   81  A    between atoms: _200  and  _202
REMARK   82  A    between atoms: _202  and  _203
REMARK   83  A    between atoms: _202  and  _205
REMARK   84  A    between atoms: _205  and  _206
REMARK   85  A    between atoms: _206  and  _207
REMARK   86  A    between atoms: _212  and  _214
REMARK   87  A    between atoms: _214  and  _215
REMARK   88  A    between atoms: _214  and  _217
REMARK   89  A    between atoms: _217  and  _218
REMARK   90  A    between atoms: _221  and  _223
REMARK   91  A    between atoms: _223  and  _224
REMARK   92  A    between atoms: _223  and  _226
REMARK   93  A    between atoms: _226  and  _227
REMARK   94  A    between atoms: _230  and  _232
REMARK   95  A    between atoms: _232  and  _233
REMARK   96  A    between atoms: _232  and  _235
REMARK   97  A    between atoms: _238  and  _240
REMARK   98  A    between atoms: _240  and  _241
REMARK   99  A    between atoms: _240  and  _243
REMARK  100  A    between atoms: _243  and  _244
REMARK  101  A    between atoms: _247  and  _249
REMARK  102  A    between atoms: _249  and  _250
REMARK  103  A    between atoms: _249  and  _252
REMARK  104  A    between atoms: _252  and  _253
REMARK  105  A    between atoms: _258  and  _259
REMARK  106  A    between atoms: _261  and  _263
REMARK  107  A    between atoms: _263  and  _264
REMARK  108  A    between atoms: _266  and  _268
REMARK  109  A    between atoms: _268  and  _269
REMARK  110  A    between atoms: _268  and  _271
REMARK  111  A    between atoms: _271  and  _272
REMARK  112  A    between atoms: _272  and  _273
REMARK  113  A    between atoms: _273  and  _274
REMARK  114  A    between atoms: _283  and  _285
REMARK  115  A    between atoms: _285  and  _286
REMARK  116  A    between atoms: _285  and  _288
REMARK  117  A    between atoms: _288  and  _289
REMARK  118  A    between atoms: _292  and  _294
REMARK  119  A    between atoms: _294  and  _295
REMARK  120  A    between atoms: _294  and  _297
REMARK  121  A    between atoms: _300  and  _302
REMARK  122  A    between atoms: _302  and  _303
REMARK  123  A    between atoms: _302  and  _305
REMARK  124  A    between atoms: _305  and  _306
REMARK  125  A    between atoms: _311  and  _313
REMARK  126  A    between atoms: _313  and  _314
REMARK  127  A    between atoms: _313  and  _316
REMARK  128  A    between atoms: _316  and  _317
REMARK  129  A    between atoms: _319  and  _321
REMARK  130  A    between atoms: _321  and  _322
REMARK  131  A    between atoms: _321  and  _324
REMARK  132  A    between atoms: _324  and  _325
REMARK  133  A    between atoms: _330  and  _331
REMARK  134  A    between atoms: _333  and  _335
REMARK  135  A    between atoms: _335  and  _336
REMARK  136  A    between atoms: _335  and  _338
REMARK  137  A    between atoms: _338  and  _339
REMARK  138  A    between atoms: _339  and  _340
REMARK  139  A    between atoms: _342  and  _344
REMARK  140  A    between atoms: _344  and  _345
REMARK  141  A    between atoms: _344  and  _347
REMARK  142  A    between atoms: _347  and  _348
REMARK  143  A    between atoms: _351  and  _353
REMARK  144  A    between atoms: _353  and  _354
REMARK  145  A    between atoms: _353  and  _356
REMARK  146  A    between atoms: _356  and  _357
REMARK  147  A    between atoms: _357  and  _358
REMARK  148  A    between atoms: _358  and  _359
REMARK  149  A    between atoms: _368  and  _370
REMARK  150  A    between atoms: _370  and  _371
REMARK  151  A    between atoms: _370  and  _373
REMARK  152  A    between atoms: _376  and  _378
REMARK  153  A    between atoms: _378  and  _379
REMARK  154  A    between atoms: _378  and  _381
REMARK  155  A    between atoms: _381  and  _382
REMARK  156  A    between atoms: _382  and  _383
REMARK  157  A    between atoms: _388  and  _390
REMARK  158  A    between atoms: _390  and  _391
REMARK  159  A    between atoms: _390  and  _393
REMARK  160  A    between atoms: _393  and  _394
REMARK  161  A    between atoms: _394  and  _395
REMARK  162  A    between atoms: _395  and  _396
REMARK  163  A    between atoms: _405  and  _407
REMARK  164  A    between atoms: _407  and  _408
REMARK  165  A    between atoms: _407  and  _410
REMARK  166  A    between atoms: _410  and  _411
REMARK  167  A    between atoms: _417  and  _418
REMARK  168  A    between atoms: _423  and  _425
REMARK  169  A    between atoms: _425  and  _426
REMARK  170  A    between atoms: _425  and  _428
REMARK  171  A    between atoms: _428  and  _429
REMARK  172  A    between atoms: _433  and  _434
REMARK  173  A    between atoms: _439  and  _441
REMARK  174  A    between atoms: _441  and  _442
REMARK  175  A    between atoms: _441  and  _444
REMARK  176  A    between atoms: _444  and  _445
REMARK  177  A    between atoms: _445  and  _446
REMARK  178  A    between atoms: _446  and  _447
REMARK  179  A    between atoms: _456  and  _458
REMARK  180  A    between atoms: _458  and  _459
REMARK  181  A    between atoms: _458  and  _461
REMARK  182  A    between atoms: _461  and  _462
REMARK  183  A    between atoms: _462  and  _463
REMARK  184  A    between atoms: _466  and  _468
REMARK  185  A    between atoms: _468  and  _469
REMARK  186  A    between atoms: _468  and  _471
REMARK  187  A    between atoms: _471  and  _472
REMARK  188  A    between atoms: _472  and  _473
REMARK  189  A    between atoms: _478  and  _480
REMARK  190  A    between atoms: _480  and  _481
REMARK  191  A    between atoms: _484  and  _486
REMARK  192  A    between atoms: _486  and  _487
REMARK  193  A    between atoms: _486  and  _489
REMARK  194  A    between atoms: _489  and  _490
REMARK  195  A    between atoms: _490  and  _491
REMARK  196  A    between atoms: _491  and  _492
REMARK  197  A    between atoms: _501  and  _503
REMARK  198  A    between atoms: _503  and  _504
REMARK  199  A    between atoms: _503  and  _506
REMARK  200  A    between atoms: _506  and  _507
REMARK  201  A    between atoms: _509  and  _511
REMARK  202  A    between atoms: _511  and  _512
REMARK  203  A    between atoms: _511  and  _514
REMARK  204  A    between atoms: _514  and  _515
REMARK  205  A    between atoms: _518  and  _520
REMARK  206  A    between atoms: _520  and  _521
REMARK  207  A    between atoms: _523  and  _525
REMARK  208  A    between atoms: _525  and  _526
REMARK  209  A    between atoms: _525  and  _528
REMARK  210  A    between atoms: _528  and  _529
REMARK  211  A    between atoms: _529  and  _530
REMARK  212  A    between atoms: _530  and  _531
REMARK  213  A    between atoms: _531  and  _532
REMARK  214  A    between atoms: _536  and  _538
REMARK  215  A    between atoms: _538  and  _539
REMARK  216  A    between atoms: _538  and  _541
REMARK  217  A    between atoms: _541  and  _542
REMARK  218  A    between atoms: _542  and  _543
REMARK  219  A    between atoms: _543  and  _544
REMARK  220  A    between atoms: _544  and  _545
REMARK  221  A    between atoms: _549  and  _551
REMARK  222  A    between atoms: _551  and  _552
REMARK  223  A    between atoms: _551  and  _554
REMARK  224  A    between atoms: _554  and  _555
REMARK  225  A    between atoms: _555  and  _556
REMARK  226  A    between atoms: _559  and  _561
REMARK  227  A    between atoms: _561  and  _562
REMARK  228  A    between atoms: _561  and  _564
REMARK  229  A    between atoms: _567  and  _569
REMARK  230  A    between atoms: _569  and  _570
REMARK  231  A    between atoms: _569  and  _572
REMARK  232  A    between atoms: _572  and  _573
REMARK  233  A    between atoms: _578  and  _579
REMARK                            x       y       z     vdW  Elec       q    Type
REMARK                         _______ _______ _______ _____ _____    ______ ____
ROOT
ATOM      1  O   HOH     1      39.545  34.496  22.802  0.00  0.00    +0.000 OA
ENDROOT
TORSDOF 0
REMARK  Name = ../refined-set-2016/2fzg/2fzg_pocket.pdb
REMARK  233 active torsions:
REMARK  status: ('A' for Active; 'I' for Inactive)
REMARK    1  A    between atoms: _1  and  _3
REMARK    2  A    between atoms: _3  and  _4
REMARK    3  A    between atoms: _3  and  _6
REMARK    4  A    between atoms: _6  and  _7
REMARK    5  A    between atoms: _13  and  _15
REMARK    6  A    between atoms: _15  and  _16
REMARK    7  A    between atoms: _15  and  _18
REMARK    8  A    between atoms: _18  and  _19
REMARK    9  A    between atoms: _19  and  _20
REMARK   10  A    between atoms: _23  and  _25
REMARK   11  A    between atoms: _25  and  _26
REMARK   12  A    between atoms: _29  and  _31
REMARK   13  A    between atoms: _31  and  _32
REMARK   14  A    between atoms: _31  and  _34
REMARK   15  A    between atoms: _34  and  _35
REMARK   16  A    between atoms: _37  and  _39
REMARK   17  A    between atoms: _39  and  _40
REMARK   18  A    between atoms: _39  and  _42
REMARK   19  A    between atoms: _42  and  _43
REMARK   20  A    between atoms: _46  and  _48
REMARK   21  A    between atoms: _48  and  _49
REMARK   22  A    between atoms: _48  and  _51
REMARK   23  A    between atoms: _51  and  _52
REMARK   24  A    between atoms: _52  and  _53
REMARK   25  A    between atoms: _53  and  _54
REMARK   26  A    between atoms: _63  and  _65
REMARK   27  A    between atoms: _65  and  _66
REMARK   28  A    between atoms: _65  and  _68
REMARK   29  A    between atoms: _68  and  _69
REMARK   30  A    between atoms: _72  and  _74
REMARK   31  A    between atoms: _74  and  _75
REMARK   32  A    between atoms: _74  and  _77
REMARK   33  A    between atoms: _77  and  _78
REMARK   34  A    between atoms: _78  and  _79
REMARK   35  A    between atoms: _79  and  _80
REMARK   36  A    between atoms: _89  and  _91
REMARK   37  A    between atoms: _91  and  _92
REMARK   38  A    between atoms: _91  and  _94
REMARK   39  A    between atoms: _94  and  _95
REMARK   40  A    between atoms: _98  and  _100
REMARK   41  A    between atoms: _100  and  _101
REMARK   42  A    between atoms: _100  and  _103
REMARK   43  A    between atoms: _103  and  _104
REMARK   44  A    between atoms: _106  and  _108
REMARK   45  A    between atoms: _108  and  _109
REMARK   46  A    between atoms: _108  and  _111
REMARK   47  A    between atoms: _111  and  _112
REMARK   48  A    between atoms: _118  and  _120
REMARK   49  A    between atoms: _120  and  _121
REMARK   50  A    between atoms: _120  and  _123
REMARK   51  A    between atoms: _123  and  _124
REMARK   52  A    between atoms: _124  and  _125
REMARK   53  A    between atoms: _125  and  _126
REMARK   54  A    between atoms: _135  and  _137
REMARK   55  A    between atoms: _137  and  _138
REMARK   56  A    between atoms: _141  and  _143
REMARK   57  A    between atoms: _143  and  _144
REMARK   58  A    between atoms: _146  and  _148
REMARK   59  A    between atoms: _148  and  _149
REMARK   60  A    between atoms: _148  and  _151
REMARK   61  A    between atoms: _151  and  _152
REMARK   62  A    between atoms: _155  and  _157
REMARK   63  A    between atoms: _157  and  _158
REMARK   64  A    between atoms: _160  and  _162
REMARK   65  A    between atoms: _162  and  _163
REMARK   66  A    between atoms: _162  and  _165
REMARK   67  A    between atoms: _165  and  _166
REMARK   68  A    between atoms: _168  and  _170
REMARK   69  A    between atoms: _170  and  _171
REMARK   70  A    between atoms: _170  and  _173
REMARK   71  A    between atoms: _173  and  _174
REMARK   72  A    between atoms: _174  and  _175
REMARK   73  A    between atoms: _180  and  _182
REMARK   74  A    between atoms: _182  and  _183
REMARK   75  A    between atoms: _182  and  _185
REMARK   76  A    between atoms: _185  and  _186
REMARK   77  A    between atoms: _191  and  _193
REMARK   78  A    between atoms: _193  and  _194
REMARK   79  A    between atoms: _193  and  _196
REMARK   80  A    between atoms: _196  and  _197
REMARK   81  A    between atoms: _200  and  _202
REMARK   82  A    between atoms: _202  and  _203
REMARK   83  A    between atoms: _202  and  _205
REMARK   84  A    between atoms: _205  and  _206
REMARK   85  A    between atoms: _206  and  _207
REMARK   86  A    between atoms: _212  and  _214
REMARK   87  A    between atoms: _214  and  _215
REMARK   88  A    between atoms: _214  and  _217
REMARK   89  A    between atoms: _217  and  _218
REMARK   90  A    between atoms: _221  and  _223
REMARK   91  A    between atoms: _223  and  _224
REMARK   92  A    between atoms: _223  and  _226
REMARK   93  A    between atoms: _226  and  _227
REMARK   94  A    between atoms: _230  and  _232
REMARK   95  A    between atoms: _232  and  _233
REMARK   96  A    between atoms: _232  and  _235
REMARK   97  A    between atoms: _238  and  _240
REMARK   98  A    between atoms: _240  and  _241
REMARK   99  A    between atoms: _240  and  _243
REMARK  100  A    between atoms: _243  and  _244
REMARK  101  A    between atoms: _247  and  _249
REMARK  102  A    between atoms: _249  and  _250
REMARK  103  A    between atoms: _249  and  _252
REMARK  104  A    between atoms: _252  and  _253
REMARK  105  A    between atoms: _258  and  _259
REMARK  106  A    between atoms: _261  and  _263
REMARK  107  A    between atoms: _263  and  _264
REMARK  108  A    between atoms: _266  and  _268
REMARK  109  A    between atoms: _268  and  _269
REMARK  110  A    between atoms: _268  and  _271
REMARK  111  A    between atoms: _271  and  _272
REMARK  112  A    between atoms: _272  and  _273
REMARK  113  A    between atoms: _273  and  _274
REMARK  114  A    between atoms: _283  and  _285
REMARK  115  A    between atoms: _285  and  _286
REMARK  116  A    between atoms: _285  and  _288
REMARK  117  A    between atoms: _288  and  _289
REMARK  118  A    between atoms: _292  and  _294
REMARK  119  A    between atoms: _294  and  _295
REMARK  120  A    between atoms: _294  and  _297
REMARK  121  A    between atoms: _300  and  _302
REMARK  122  A    between atoms: _302  and  _303
REMARK  123  A    between atoms: _302  and  _305
REMARK  124  A    between atoms: _305  and  _306
REMARK  125  A    between atoms: _311  and  _313
REMARK  126  A    between atoms: _313  and  _314
REMARK  127  A    between atoms: _313  and  _316
REMARK  128  A    between atoms: _316  and  _317
REMARK  129  A    between atoms: _319  and  _321
REMARK  130  A    between atoms: _321  and  _322
REMARK  131  A    between atoms: _321  and  _324
REMARK  132  A    between atoms: _324  and  _325
REMARK  133  A    between atoms: _330  and  _331
REMARK  134  A    between atoms: _333  and  _335
REMARK  135  A    between atoms: _335  and  _336
REMARK  136  A    between atoms: _335  and  _338
REMARK  137  A    between atoms: _338  and  _339
REMARK  138  A    between atoms: _339  and  _340
REMARK  139  A    between atoms: _342  and  _344
REMARK  140  A    between atoms: _344  and  _345
REMARK  141  A    between atoms: _344  and  _347
REMARK  142  A    between atoms: _347  and  _348
REMARK  143  A    between atoms: _351  and  _353
REMARK  144  A    between atoms: _353  and  _354
REMARK  145  A    between atoms: _353  and  _356
REMARK  146  A    between atoms: _356  and  _357
REMARK  147  A    between atoms: _357  and  _358
REMARK  148  A    between atoms: _358  and  _359
REMARK  149  A    between atoms: _368  and  _370
REMARK  150  A    between atoms: _370  and  _371
REMARK  151  A    between atoms: _370  and  _373
REMARK  152  A    between atoms: _376  and  _378
REMARK  153  A    between atoms: _378  and  _379
REMARK  154  A    between atoms: _378  and  _381
REMARK  155  A    between atoms: _381  and  _382
REMARK  156  A    between atoms: _382  and  _383
REMARK  157  A    between atoms: _388  and  _390
REMARK  158  A    between atoms: _390  and  _391
REMARK  159  A    between atoms: _390  and  _393
REMARK  160  A    between atoms: _393  and  _394
REMARK  161  A    between atoms: _394  and  _395
REMARK  162  A    between atoms: _395  and  _396
REMARK  163  A    between atoms: _405  and  _407
REMARK  164  A    between atoms: _407  and  _408
REMARK  165  A    between atoms: _407  and  _410
REMARK  166  A    between atoms: _410  and  _411
REMARK  167  A    between atoms: _417  and  _418
REMARK  168  A    between atoms: _423  and  _425
REMARK  169  A    between atoms: _425  and  _426
REMARK  170  A    between atoms: _425  and  _428
REMARK  171  A    between atoms: _428  and  _429
REMARK  172  A    between atoms: _433  and  _434
REMARK  173  A    between atoms: _439  and  _441
REMARK  174  A    between atoms: _441  and  _442
REMARK  175  A    between atoms: _441  and  _444
REMARK  176  A    between atoms: _444  and  _445
REMARK  177  A    between atoms: _445  and  _446
REMARK  178  A    between atoms: _446  and  _447
REMARK  179  A    between atoms: _456  and  _458
REMARK  180  A    between atoms: _458  and  _459
REMARK  181  A    between atoms: _458  and  _461
REMARK  182  A    between atoms: _461  and  _462
REMARK  183  A    between atoms: _462  and  _463
REMARK  184  A    between atoms: _466  and  _468
REMARK  185  A    between atoms: _468  and  _469
REMARK  186  A    between atoms: _468  and  _471
REMARK  187  A    between atoms: _471  and  _472
REMARK  188  A    between atoms: _472  and  _473
REMARK  189  A    between atoms: _478  and  _480
REMARK  190  A    between atoms: _480  and  _481
REMARK  191  A    between atoms: _484  and  _486
REMARK  192  A    between atoms: _486  and  _487
REMARK  193  A    between atoms: _486  and  _489
REMARK  194  A    between atoms: _489  and  _490
REMARK  195  A    between atoms: _490  and  _491
REMARK  196  A    between atoms: _491  and  _492
REMARK  197  A    between atoms: _501  and  _503
REMARK  198  A    between atoms: _503  and  _504
REMARK  199  A    between atoms: _503  and  _506
REMARK  200  A    between atoms: _506  and  _507
REMARK  201  A    between atoms: _509  and  _511
REMARK  202  A    between atoms: _511  and  _512
REMARK  203  A    between atoms: _511  and  _514
REMARK  204  A    between atoms: _514  and  _515
REMARK  205  A    between atoms: _518  and  _520
REMARK  206  A    between atoms: _520  and  _521
REMARK  207  A    between atoms: _523  and  _525
REMARK  208  A    between atoms: _525  and  _526
REMARK  209  A    between atoms: _525  and  _528
REMARK  210  A    between atoms: _528  and  _529
REMARK  211  A    between atoms: _529  and  _530
REMARK  212  A    between atoms: _530  and  _531
REMARK  213  A    between atoms: _531  and  _532
REMARK  214  A    between atoms: _536  and  _538
REMARK  215  A    between atoms: _538  and  _539
REMARK  216  A    between atoms: _538  and  _541
REMARK  217  A    between atoms: _541  and  _542
REMARK  218  A    between atoms: _542  and  _543
REMARK  219  A    between atoms: _543  and  _544
REMARK  220  A    between atoms: _544  and  _545
REMARK  221  A    between atoms: _549  and  _551
REMARK  222  A    between atoms: _551  and  _552
REMARK  223  A    between atoms: _551  and  _554
REMARK  224  A    between atoms: _554  and  _555
REMARK  225  A    between atoms: _555  and  _556
REMARK  226  A    between atoms: _559  and  _561
REMARK  227  A    between atoms: _561  and  _562
REMARK  228  A    between atoms: _561  and  _564
REMARK  229  A    between atoms: _567  and  _569
REMARK  230  A    between atoms: _569  and  _570
REMARK  231  A    between atoms: _569  and  _572
REMARK  232  A    between atoms: _572  and  _573
REMARK  233  A    between atoms: _578  and  _579
REMARK                            x       y       z     vdW  Elec       q    Type
REMARK                         _______ _______ _______ _____ _____    ______ ____
ROOT
ATOM      1  O   HOH     1      32.789  19.720  23.283  0.00  0.00    +0.000 OA
ENDROOT
TORSDOF 0
REMARK  Name = ../refined-set-2016/2fzg/2fzg_pocket.pdb
REMARK  233 active torsions:
REMARK  status: ('A' for Active; 'I' for Inactive)
REMARK    1  A    between atoms: _1  and  _3
REMARK    2  A    between atoms: _3  and  _4
REMARK    3  A    between atoms: _3  and  _6
REMARK    4  A    between atoms: _6  and  _7
REMARK    5  A    between atoms: _13  and  _15
REMARK    6  A    between atoms: _15  and  _16
REMARK    7  A    between atoms: _15  and  _18
REMARK    8  A    between atoms: _18  and  _19
REMARK    9  A    between atoms: _19  and  _20
REMARK   10  A    between atoms: _23  and  _25
REMARK   11  A    between atoms: _25  and  _26
REMARK   12  A    between atoms: _29  and  _31
REMARK   13  A    between atoms: _31  and  _32
REMARK   14  A    between atoms: _31  and  _34
REMARK   15  A    between atoms: _34  and  _35
REMARK   16  A    between atoms: _37  and  _39
REMARK   17  A    between atoms: _39  and  _40
REMARK   18  A    between atoms: _39  and  _42
REMARK   19  A    between atoms: _42  and  _43
REMARK   20  A    between atoms: _46  and  _48
REMARK   21  A    between atoms: _48  and  _49
REMARK   22  A    between atoms: _48  and  _51
REMARK   23  A    between atoms: _51  and  _52
REMARK   24  A    between atoms: _52  and  _53
REMARK   25  A    between atoms: _53  and  _54
REMARK   26  A    between atoms: _63  and  _65
REMARK   27  A    between atoms: _65  and  _66
REMARK   28  A    between atoms: _65  and  _68
REMARK   29  A    between atoms: _68  and  _69
REMARK   30  A    between atoms: _72  and  _74
REMARK   31  A    between atoms: _74  and  _75
REMARK   32  A    between atoms: _74  and  _77
REMARK   33  A    between atoms: _77  and  _78
REMARK   34  A    between atoms: _78  and  _79
REMARK   35  A    between atoms: _79  and  _80
REMARK   36  A    between atoms: _89  and  _91
REMARK   37  A    between atoms: _91  and  _92
REMARK   38  A    between atoms: _91  and  _94
REMARK   39  A    between atoms: _94  and  _95
REMARK   40  A    between atoms: _98  and  _100
REMARK   41  A    between atoms: _100  and  _101
REMARK   42  A    between atoms: _100  and  _103
REMARK   43  A    between atoms: _103  and  _104
REMARK   44  A    between atoms: _106  and  _108
REMARK   45  A    between atoms: _108  and  _109
REMARK   46  A    between atoms: _108  and  _111
REMARK   47  A    between atoms: _111  and  _112
REMARK   48  A    between atoms: _118  and  _120
REMARK   49  A    between atoms: _120  and  _121
REMARK   50  A    between atoms: _120  and  _123
REMARK   51  A    between atoms: _123  and  _124
REMARK   52  A    between atoms: _124  and  _125
REMARK   53  A    between atoms: _125  and  _126
REMARK   54  A    between atoms: _135  and  _137
REMARK   55  A    between atoms: _137  and  _138
REMARK   56  A    between atoms: _141  and  _143
REMARK   57  A    between atoms: _143  and  _144
REMARK   58  A    between atoms: _146  and  _148
REMARK   59  A    between atoms: _148  and  _149
REMARK   60  A    between atoms: _148  and  _151
REMARK   61  A    between atoms: _151  and  _152
REMARK   62  A    between atoms: _155  and  _157
REMARK   63  A    between atoms: _157  and  _158
REMARK   64  A    between atoms: _160  and  _162
REMARK   65  A    between atoms: _162  and  _163
REMARK   66  A    between atoms: _162  and  _165
REMARK   67  A    between atoms: _165  and  _166
REMARK   68  A    between atoms: _168  and  _170
REMARK   69  A    between atoms: _170  and  _171
REMARK   70  A    between atoms: _170  and  _173
REMARK   71  A    between atoms: _173  and  _174
REMARK   72  A    between atoms: _174  and  _175
REMARK   73  A    between atoms: _180  and  _182
REMARK   74  A    between atoms: _182  and  _183
REMARK   75  A    between atoms: _182  and  _185
REMARK   76  A    between atoms: _185  and  _186
REMARK   77  A    between atoms: _191  and  _193
REMARK   78  A    between atoms: _193  and  _194
REMARK   79  A    between atoms: _193  and  _196
REMARK   80  A    between atoms: _196  and  _197
REMARK   81  A    between atoms: _200  and  _202
REMARK   82  A    between atoms: _202  and  _203
REMARK   83  A    between atoms: _202  and  _205
REMARK   84  A    between atoms: _205  and  _206
REMARK   85  A    between atoms: _206  and  _207
REMARK   86  A    between atoms: _212  and  _214
REMARK   87  A    between atoms: _214  and  _215
REMARK   88  A    between atoms: _214  and  _217
REMARK   89  A    between atoms: _217  and  _218
REMARK   90  A    between atoms: _221  and  _223
REMARK   91  A    between atoms: _223  and  _224
REMARK   92  A    between atoms: _223  and  _226
REMARK   93  A    between atoms: _226  and  _227
REMARK   94  A    between atoms: _230  and  _232
REMARK   95  A    between atoms: _232  and  _233
REMARK   96  A    between atoms: _232  and  _235
REMARK   97  A    between atoms: _238  and  _240
REMARK   98  A    between atoms: _240  and  _241
REMARK   99  A    between atoms: _240  and  _243
REMARK  100  A    between atoms: _243  and  _244
REMARK  101  A    between atoms: _247  and  _249
REMARK  102  A    between atoms: _249  and  _250
REMARK  103  A    between atoms: _249  and  _252
REMARK  104  A    between atoms: _252  and  _253
REMARK  105  A    between atoms: _258  and  _259
REMARK  106  A    between atoms: _261  and  _263
REMARK  107  A    between atoms: _263  and  _264
REMARK  108  A    between atoms: _266  and  _268
REMARK  109  A    between atoms: _268  and  _269
REMARK  110  A    between atoms: _268  and  _271
REMARK  111  A    between atoms: _271  and  _272
REMARK  112  A    between atoms: _272  and  _273
REMARK  113  A    between atoms: _273  and  _274
REMARK  114  A    between atoms: _283  and  _285
REMARK  115  A    between atoms: _285  and  _286
REMARK  116  A    between atoms: _285  and  _288
REMARK  117  A    between atoms: _288  and  _289
REMARK  118  A    between atoms: _292  and  _294
REMARK  119  A    between atoms: _294  and  _295
REMARK  120  A    between atoms: _294  and  _297
REMARK  121  A    between atoms: _300  and  _302
REMARK  122  A    between atoms: _302  and  _303
REMARK  123  A    between atoms: _302  and  _305
REMARK  124  A    between atoms: _305  and  _306
REMARK  125  A    between atoms: _311  and  _313
REMARK  126  A    between atoms: _313  and  _314
REMARK  127  A    between atoms: _313  and  _316
REMARK  128  A    between atoms: _316  and  _317
REMARK  129  A    between atoms: _319  and  _321
REMARK  130  A    between atoms: _321  and  _322
REMARK  131  A    between atoms: _321  and  _324
REMARK  132  A    between atoms: _324  and  _325
REMARK  133  A    between atoms: _330  and  _331
REMARK  134  A    between atoms: _333  and  _335
REMARK  135  A    between atoms: _335  and  _336
REMARK  136  A    between atoms: _335  and  _338
REMARK  137  A    between atoms: _338  and  _339
REMARK  138  A    between atoms: _339  and  _340
REMARK  139  A    between atoms: _342  and  _344
REMARK  140  A    between atoms: _344  and  _345
REMARK  141  A    between atoms: _344  and  _347
REMARK  142  A    between atoms: _347  and  _348
REMARK  143  A    between atoms: _351  and  _353
REMARK  144  A    between atoms: _353  and  _354
REMARK  145  A    between atoms: _353  and  _356
REMARK  146  A    between atoms: _356  and  _357
REMARK  147  A    between atoms: _357  and  _358
REMARK  148  A    between atoms: _358  and  _359
REMARK  149  A    between atoms: _368  and  _370
REMARK  150  A    between atoms: _370  and  _371
REMARK  151  A    between atoms: _370  and  _373
REMARK  152  A    between atoms: _376  and  _378
REMARK  153  A    between atoms: _378  and  _379
REMARK  154  A    between atoms: _378  and  _381
REMARK  155  A    between atoms: _381  and  _382
REMARK  156  A    between atoms: _382  and  _383
REMARK  157  A    between atoms: _388  and  _390
REMARK  158  A    between atoms: _390  and  _391
REMARK  159  A    between atoms: _390  and  _393
REMARK  160  A    between atoms: _393  and  _394
REMARK  161  A    between atoms: _394  and  _395
REMARK  162  A    between atoms: _395  and  _396
REMARK  163  A    between atoms: _405  and  _407
REMARK  164  A    between atoms: _407  and  _408
REMARK  165  A    between atoms: _407  and  _410
REMARK  166  A    between atoms: _410  and  _411
REMARK  167  A    between atoms: _417  and  _418
REMARK  168  A    between atoms: _423  and  _425
REMARK  169  A    between atoms: _425  and  _426
REMARK  170  A    between atoms: _425  and  _428
REMARK  171  A    between atoms: _428  and  _429
REMARK  172  A    between atoms: _433  and  _434
REMARK  173  A    between atoms: _439  and  _441
REMARK  174  A    between atoms: _441  and  _442
REMARK  175  A    between atoms: _441  and  _444
REMARK  176  A    between atoms: _444  and  _445
REMARK  177  A    between atoms: _445  and  _446
REMARK  178  A    between atoms: _446  and  _447
REMARK  179  A    between atoms: _456  and  _458
REMARK  180  A    between atoms: _458  and  _459
REMARK  181  A    between atoms: _458  and  _461
REMARK  182  A    between atoms: _461  and  _462
REMARK  183  A    between atoms: _462  and  _463
REMARK  184  A    between atoms: _466  and  _468
REMARK  185  A    between atoms: _468  and  _469
REMARK  186  A    between atoms: _468  and  _471
REMARK  187  A    between atoms: _471  and  _472
REMARK  188  A    between atoms: _472  and  _473
REMARK  189  A    between atoms: _478  and  _480
REMARK  190  A    between atoms: _480  and  _481
REMARK  191  A    between atoms: _484  and  _486
REMARK  192  A    between atoms: _486  and  _487
REMARK  193  A    between atoms: _486  and  _489
REMARK  194  A    between atoms: _489  and  _490
REMARK  195  A    between atoms: _490  and  _491
REMARK  196  A    between atoms: _491  and  _492
REMARK  197  A    between atoms: _501  and  _503
REMARK  198  A    between atoms: _503  and  _504
REMARK  199  A    between atoms: _503  and  _506
REMARK  200  A    between atoms: _506  and  _507
REMARK  201  A    between atoms: _509  and  _511
REMARK  202  A    between atoms: _511  and  _512
REMARK  203  A    between atoms: _511  and  _514
REMARK  204  A    between atoms: _514  and  _515
REMARK  205  A    between atoms: _518  and  _520
REMARK  206  A    between atoms: _520  and  _521
REMARK  207  A    between atoms: _523  and  _525
REMARK  208  A    between atoms: _525  and  _526
REMARK  209  A    between atoms: _525  and  _528
REMARK  210  A    between atoms: _528  and  _529
REMARK  211  A    between atoms: _529  and  _530
REMARK  212  A    between atoms: _530  and  _531
REMARK  213  A    between atoms: _531  and  _532
REMARK  214  A    between atoms: _536  and  _538
REMARK  215  A    between atoms: _538  and  _539
REMARK  216  A    between atoms: _538  and  _541
REMARK  217  A    between atoms: _541  and  _542
REMARK  218  A    between atoms: _542  and  _543
REMARK  219  A    between atoms: _543  and  _544
REMARK  220  A    between atoms: _544  and  _545
REMARK  221  A    between atoms: _549  and  _551
REMARK  222  A    between atoms: _551  and  _552
REMARK  223  A    between atoms: _551  and  _554
REMARK  224  A    between atoms: _554  and  _555
REMARK  225  A    between atoms: _555  and  _556
REMARK  226  A    between atoms: _559  and  _561
REMARK  227  A    between atoms: _561  and  _562
REMARK  228  A    between atoms: _561  and  _564
REMARK  229  A    between atoms: _567  and  _569
REMARK  230  A    between atoms: _569  and  _570
REMARK  231  A    between atoms: _569  and  _572
REMARK  232  A    between atoms: _572  and  _573
REMARK  233  A    between atoms: _578  and  _579
REMARK                            x       y       z     vdW  Elec       q    Type
REMARK                         _______ _______ _______ _____ _____    ______ ____
ROOT
ATOM      1  O   HOH     1      40.154  20.095  24.023  0.00  0.00    +0.000 OA
ENDROOT
TORSDOF 0
REMARK  Name = ../refined-set-2016/2fzg/2fzg_pocket.pdb
REMARK  233 active torsions:
REMARK  status: ('A' for Active; 'I' for Inactive)
REMARK    1  A    between atoms: _1  and  _3
REMARK    2  A    between atoms: _3  and  _4
REMARK    3  A    between atoms: _3  and  _6
REMARK    4  A    between atoms: _6  and  _7
REMARK    5  A    between atoms: _13  and  _15
REMARK    6  A    between atoms: _15  and  _16
REMARK    7  A    between atoms: _15  and  _18
REMARK    8  A    between atoms: _18  and  _19
REMARK    9  A    between atoms: _19  and  _20
REMARK   10  A    between atoms: _23  and  _25
REMARK   11  A    between atoms: _25  and  _26
REMARK   12  A    between atoms: _29  and  _31
REMARK   13  A    between atoms: _31  and  _32
REMARK   14  A    between atoms: _31  and  _34
REMARK   15  A    between atoms: _34  and  _35
REMARK   16  A    between atoms: _37  and  _39
REMARK   17  A    between atoms: _39  and  _40
REMARK   18  A    between atoms: _39  and  _42
REMARK   19  A    between atoms: _42  and  _43
REMARK   20  A    between atoms: _46  and  _48
REMARK   21  A    between atoms: _48  and  _49
REMARK   22  A    between atoms: _48  and  _51
REMARK   23  A    between atoms: _51  and  _52
REMARK   24  A    between atoms: _52  and  _53
REMARK   25  A    between atoms: _53  and  _54
REMARK   26  A    between atoms: _63  and  _65
REMARK   27  A    between atoms: _65  and  _66
REMARK   28  A    between atoms: _65  and  _68
REMARK   29  A    between atoms: _68  and  _69
REMARK   30  A    between atoms: _72  and  _74
REMARK   31  A    between atoms: _74  and  _75
REMARK   32  A    between atoms: _74  and  _77
REMARK   33  A    between atoms: _77  and  _78
REMARK   34  A    between atoms: _78  and  _79
REMARK   35  A    between atoms: _79  and  _80
REMARK   36  A    between atoms: _89  and  _91
REMARK   37  A    between atoms: _91  and  _92
REMARK   38  A    between atoms: _91  and  _94
REMARK   39  A    between atoms: _94  and  _95
REMARK   40  A    between atoms: _98  and  _100
REMARK   41  A    between atoms: _100  and  _101
REMARK   42  A    between atoms: _100  and  _103
REMARK   43  A    between atoms: _103  and  _104
REMARK   44  A    between atoms: _106  and  _108
REMARK   45  A    between atoms: _108  and  _109
REMARK   46  A    between atoms: _108  and  _111
REMARK   47  A    between atoms: _111  and  _112
REMARK   48  A    between atoms: _118  and  _120
REMARK   49  A    between atoms: _120  and  _121
REMARK   50  A    between atoms: _120  and  _123
REMARK   51  A    between atoms: _123  and  _124
REMARK   52  A    between atoms: _124  and  _125
REMARK   53  A    between atoms: _125  and  _126
REMARK   54  A    between atoms: _135  and  _137
REMARK   55  A    between atoms: _137  and  _138
REMARK   56  A    between atoms: _141  and  _143
REMARK   57  A    between atoms: _143  and  _144
REMARK   58  A    between atoms: _146  and  _148
REMARK   59  A    between atoms: _148  and  _149
REMARK   60  A    between atoms: _148  and  _151
REMARK   61  A    between atoms: _151  and  _152
REMARK   62  A    between atoms: _155  and  _157
REMARK   63  A    between atoms: _157  and  _158
REMARK   64  A    between atoms: _160  and  _162
REMARK   65  A    between atoms: _162  and  _163
REMARK   66  A    between atoms: _162  and  _165
REMARK   67  A    between atoms: _165  and  _166
REMARK   68  A    between atoms: _168  and  _170
REMARK   69  A    between atoms: _170  and  _171
REMARK   70  A    between atoms: _170  and  _173
REMARK   71  A    between atoms: _173  and  _174
REMARK   72  A    between atoms: _174  and  _175
REMARK   73  A    between atoms: _180  and  _182
REMARK   74  A    between atoms: _182  and  _183
REMARK   75  A    between atoms: _182  and  _185
REMARK   76  A    between atoms: _185  and  _186
REMARK   77  A    between atoms: _191  and  _193
REMARK   78  A    between atoms: _193  and  _194
REMARK   79  A    between atoms: _193  and  _196
REMARK   80  A    between atoms: _196  and  _197
REMARK   81  A    between atoms: _200  and  _202
REMARK   82  A    between atoms: _202  and  _203
REMARK   83  A    between atoms: _202  and  _205
REMARK   84  A    between atoms: _205  and  _206
REMARK   85  A    between atoms: _206  and  _207
REMARK   86  A    between atoms: _212  and  _214
REMARK   87  A    between atoms: _214  and  _215
REMARK   88  A    between atoms: _214  and  _217
REMARK   89  A    between atoms: _217  and  _218
REMARK   90  A    between atoms: _221  and  _223
REMARK   91  A    between atoms: _223  and  _224
REMARK   92  A    between atoms: _223  and  _226
REMARK   93  A    between atoms: _226  and  _227
REMARK   94  A    between atoms: _230  and  _232
REMARK   95  A    between atoms: _232  and  _233
REMARK   96  A    between atoms: _232  and  _235
REMARK   97  A    between atoms: _238  and  _240
REMARK   98  A    between atoms: _240  and  _241
REMARK   99  A    between atoms: _240  and  _243
REMARK  100  A    between atoms: _243  and  _244
REMARK  101  A    between atoms: _247  and  _249
REMARK  102  A    between atoms: _249  and  _250
REMARK  103  A    between atoms: _249  and  _252
REMARK  104  A    between atoms: _252  and  _253
REMARK  105  A    between atoms: _258  and  _259
REMARK  106  A    between atoms: _261  and  _263
REMARK  107  A    between atoms: _263  and  _264
REMARK  108  A    between atoms: _266  and  _268
REMARK  109  A    between atoms: _268  and  _269
REMARK  110  A    between atoms: _268  and  _271
REMARK  111  A    between atoms: _271  and  _272
REMARK  112  A    between atoms: _272  and  _273
REMARK  113  A    between atoms: _273  and  _274
REMARK  114  A    between atoms: _283  and  _285
REMARK  115  A    between atoms: _285  and  _286
REMARK  116  A    between atoms: _285  and  _288
REMARK  117  A    between atoms: _288  and  _289
REMARK  118  A    between atoms: _292  and  _294
REMARK  119  A    between atoms: _294  and  _295
REMARK  120  A    between atoms: _294  and  _297
REMARK  121  A    between atoms: _300  and  _302
REMARK  122  A    between atoms: _302  and  _303
REMARK  123  A    between atoms: _302  and  _305
REMARK  124  A    between atoms: _305  and  _306
REMARK  125  A    between atoms: _311  and  _313
REMARK  126  A    between atoms: _313  and  _314
REMARK  127  A    between atoms: _313  and  _316
REMARK  128  A    between atoms: _316  and  _317
REMARK  129  A    between atoms: _319  and  _321
REMARK  130  A    between atoms: _321  and  _322
REMARK  131  A    between atoms: _321  and  _324
REMARK  132  A    between atoms: _324  and  _325
REMARK  133  A    between atoms: _330  and  _331
REMARK  134  A    between atoms: _333  and  _335
REMARK  135  A    between atoms: _335  and  _336
REMARK  136  A    between atoms: _335  and  _338
REMARK  137  A    between atoms: _338  and  _339
REMARK  138  A    between atoms: _339  and  _340
REMARK  139  A    between atoms: _342  and  _344
REMARK  140  A    between atoms: _344  and  _345
REMARK  141  A    between atoms: _344  and  _347
REMARK  142  A    between atoms: _347  and  _348
REMARK  143  A    between atoms: _351  and  _353
REMARK  144  A    between atoms: _353  and  _354
REMARK  145  A    between atoms: _353  and  _356
REMARK  146  A    between atoms: _356  and  _357
REMARK  147  A    between atoms: _357  and  _358
REMARK  148  A    between atoms: _358  and  _359
REMARK  149  A    between atoms: _368  and  _370
REMARK  150  A    between atoms: _370  and  _371
REMARK  151  A    between atoms: _370  and  _373
REMARK  152  A    between atoms: _376  and  _378
REMARK  153  A    between atoms: _378  and  _379
REMARK  154  A    between atoms: _378  and  _381
REMARK  155  A    between atoms: _381  and  _382
REMARK  156  A    between atoms: _382  and  _383
REMARK  157  A    between atoms: _388  and  _390
REMARK  158  A    between atoms: _390  and  _391
REMARK  159  A    between atoms: _390  and  _393
REMARK  160  A    between atoms: _393  and  _394
REMARK  161  A    between atoms: _394  and  _395
REMARK  162  A    between atoms: _395  and  _396
REMARK  163  A    between atoms: _405  and  _407
REMARK  164  A    between atoms: _407  and  _408
REMARK  165  A    between atoms: _407  and  _410
REMARK  166  A    between atoms: _410  and  _411
REMARK  167  A    between atoms: _417  and  _418
REMARK  168  A    between atoms: _423  and  _425
REMARK  169  A    between atoms: _425  and  _426
REMARK  170  A    between atoms: _425  and  _428
REMARK  171  A    between atoms: _428  and  _429
REMARK  172  A    between atoms: _433  and  _434
REMARK  173  A    between atoms: _439  and  _441
REMARK  174  A    between atoms: _441  and  _442
REMARK  175  A    between atoms: _441  and  _444
REMARK  176  A    between atoms: _444  and  _445
REMARK  177  A    between atoms: _445  and  _446
REMARK  178  A    between atoms: _446  and  _447
REMARK  179  A    between atoms: _456  and  _458
REMARK  180  A    between atoms: _458  and  _459
REMARK  181  A    between atoms: _458  and  _461
REMARK  182  A    between atoms: _461  and  _462
REMARK  183  A    between atoms: _462  and  _463
REMARK  184  A    between atoms: _466  and  _468
REMARK  185  A    between atoms: _468  and  _469
REMARK  186  A    between atoms: _468  and  _471
REMARK  187  A    between atoms: _471  and  _472
REMARK  188  A    between atoms: _472  and  _473
REMARK  189  A    between atoms: _478  and  _480
REMARK  190  A    between atoms: _480  and  _481
REMARK  191  A    between atoms: _484  and  _486
REMARK  192  A    between atoms: _486  and  _487
REMARK  193  A    between atoms: _486  and  _489
REMARK  194  A    between atoms: _489  and  _490
REMARK  195  A    between atoms: _490  and  _491
REMARK  196  A    between atoms: _491  and  _492
REMARK  197  A    between atoms: _501  and  _503
REMARK  198  A    between atoms: _503  and  _504
REMARK  199  A    between atoms: _503  and  _506
REMARK  200  A    between atoms: _506  and  _507
REMARK  201  A    between atoms: _509  and  _511
REMARK  202  A    between atoms: _511  and  _512
REMARK  203  A    between atoms: _511  and  _514
REMARK  204  A    between atoms: _514  and  _515
REMARK  205  A    between atoms: _518  and  _520
REMARK  206  A    between atoms: _520  and  _521
REMARK  207  A    between atoms: _523  and  _525
REMARK  208  A    between atoms: _525  and  _526
REMARK  209  A    between atoms: _525  and  _528
REMARK  210  A    between atoms: _528  and  _529
REMARK  211  A    between atoms: _529  and  _530
REMARK  212  A    between atoms: _530  and  _531
REMARK  213  A    between atoms: _531  and  _532
REMARK  214  A    between atoms: _536  and  _538
REMARK  215  A    between atoms: _538  and  _539
REMARK  216  A    between atoms: _538  and  _541
REMARK  217  A    between atoms: _541  and  _542
REMARK  218  A    between atoms: _542  and  _543
REMARK  219  A    between atoms: _543  and  _544
REMARK  220  A    between atoms: _544  and  _545
REMARK  221  A    between atoms: _549  and  _551
REMARK  222  A    between atoms: _551  and  _552
REMARK  223  A    between atoms: _551  and  _554
REMARK  224  A    between atoms: _554  and  _555
REMARK  225  A    between atoms: _555  and  _556
REMARK  226  A    between atoms: _559  and  _561
REMARK  227  A    between atoms: _561  and  _562
REMARK  228  A    between atoms: _561  and  _564
REMARK  229  A    between atoms: _567  and  _569
REMARK  230  A    between atoms: _569  and  _570
REMARK  231  A    between atoms: _569  and  _572
REMARK  232  A    between atoms: _572  and  _573
REMARK  233  A    between atoms: _578  and  _579
REMARK                            x       y       z     vdW  Elec       q    Type
REMARK                         _______ _______ _______ _____ _____    ______ ____
ROOT
ATOM      1  O   HOH     1      42.750  26.879  11.609  0.00  0.00    +0.000 OA
ENDROOT
TORSDOF 0
REMARK  Name = ../refined-set-2016/2fzg/2fzg_pocket.pdb
REMARK  233 active torsions:
REMARK  status: ('A' for Active; 'I' for Inactive)
REMARK    1  A    between atoms: _1  and  _3
REMARK    2  A    between atoms: _3  and  _4
REMARK    3  A    between atoms: _3  and  _6
REMARK    4  A    between atoms: _6  and  _7
REMARK    5  A    between atoms: _13  and  _15
REMARK    6  A    between atoms: _15  and  _16
REMARK    7  A    between atoms: _15  and  _18
REMARK    8  A    between atoms: _18  and  _19
REMARK    9  A    between atoms: _19  and  _20
REMARK   10  A    between atoms: _23  and  _25
REMARK   11  A    between atoms: _25  and  _26
REMARK   12  A    between atoms: _29  and  _31
REMARK   13  A    between atoms: _31  and  _32
REMARK   14  A    between atoms: _31  and  _34
REMARK   15  A    between atoms: _34  and  _35
REMARK   16  A    between atoms: _37  and  _39
REMARK   17  A    between atoms: _39  and  _40
REMARK   18  A    between atoms: _39  and  _42
REMARK   19  A    between atoms: _42  and  _43
REMARK   20  A    between atoms: _46  and  _48
REMARK   21  A    between atoms: _48  and  _49
REMARK   22  A    between atoms: _48  and  _51
REMARK   23  A    between atoms: _51  and  _52
REMARK   24  A    between atoms: _52  and  _53
REMARK   25  A    between atoms: _53  and  _54
REMARK   26  A    between atoms: _63  and  _65
REMARK   27  A    between atoms: _65  and  _66
REMARK   28  A    between atoms: _65  and  _68
REMARK   29  A    between atoms: _68  and  _69
REMARK   30  A    between atoms: _72  and  _74
REMARK   31  A    between atoms: _74  and  _75
REMARK   32  A    between atoms: _74  and  _77
REMARK   33  A    between atoms: _77  and  _78
REMARK   34  A    between atoms: _78  and  _79
REMARK   35  A    between atoms: _79  and  _80
REMARK   36  A    between atoms: _89  and  _91
REMARK   37  A    between atoms: _91  and  _92
REMARK   38  A    between atoms: _91  and  _94
REMARK   39  A    between atoms: _94  and  _95
REMARK   40  A    between atoms: _98  and  _100
REMARK   41  A    between atoms: _100  and  _101
REMARK   42  A    between atoms: _100  and  _103
REMARK   43  A    between atoms: _103  and  _104
REMARK   44  A    between atoms: _106  and  _108
REMARK   45  A    between atoms: _108  and  _109
REMARK   46  A    between atoms: _108  and  _111
REMARK   47  A    between atoms: _111  and  _112
REMARK   48  A    between atoms: _118  and  _120
REMARK   49  A    between atoms: _120  and  _121
REMARK   50  A    between atoms: _120  and  _123
REMARK   51  A    between atoms: _123  and  _124
REMARK   52  A    between atoms: _124  and  _125
REMARK   53  A    between atoms: _125  and  _126
REMARK   54  A    between atoms: _135  and  _137
REMARK   55  A    between atoms: _137  and  _138
REMARK   56  A    between atoms: _141  and  _143
REMARK   57  A    between atoms: _143  and  _144
REMARK   58  A    between atoms: _146  and  _148
REMARK   59  A    between atoms: _148  and  _149
REMARK   60  A    between atoms: _148  and  _151
REMARK   61  A    between atoms: _151  and  _152
REMARK   62  A    between atoms: _155  and  _157
REMARK   63  A    between atoms: _157  and  _158
REMARK   64  A    between atoms: _160  and  _162
REMARK   65  A    between atoms: _162  and  _163
REMARK   66  A    between atoms: _162  and  _165
REMARK   67  A    between atoms: _165  and  _166
REMARK   68  A    between atoms: _168  and  _170
REMARK   69  A    between atoms: _170  and  _171
REMARK   70  A    between atoms: _170  and  _173
REMARK   71  A    between atoms: _173  and  _174
REMARK   72  A    between atoms: _174  and  _175
REMARK   73  A    between atoms: _180  and  _182
REMARK   74  A    between atoms: _182  and  _183
REMARK   75  A    between atoms: _182  and  _185
REMARK   76  A    between atoms: _185  and  _186
REMARK   77  A    between atoms: _191  and  _193
REMARK   78  A    between atoms: _193  and  _194
REMARK   79  A    between atoms: _193  and  _196
REMARK   80  A    between atoms: _196  and  _197
REMARK   81  A    between atoms: _200  and  _202
REMARK   82  A    between atoms: _202  and  _203
REMARK   83  A    between atoms: _202  and  _205
REMARK   84  A    between atoms: _205  and  _206
REMARK   85  A    between atoms: _206  and  _207
REMARK   86  A    between atoms: _212  and  _214
REMARK   87  A    between atoms: _214  and  _215
REMARK   88  A    between atoms: _214  and  _217
REMARK   89  A    between atoms: _217  and  _218
REMARK   90  A    between atoms: _221  and  _223
REMARK   91  A    between atoms: _223  and  _224
REMARK   92  A    between atoms: _223  and  _226
REMARK   93  A    between atoms: _226  and  _227
REMARK   94  A    between atoms: _230  and  _232
REMARK   95  A    between atoms: _232  and  _233
REMARK   96  A    between atoms: _232  and  _235
REMARK   97  A    between atoms: _238  and  _240
REMARK   98  A    between atoms: _240  and  _241
REMARK   99  A    between atoms: _240  and  _243
REMARK  100  A    between atoms: _243  and  _244
REMARK  101  A    between atoms: _247  and  _249
REMARK  102  A    between atoms: _249  and  _250
REMARK  103  A    between atoms: _249  and  _252
REMARK  104  A    between atoms: _252  and  _253
REMARK  105  A    between atoms: _258  and  _259
REMARK  106  A    between atoms: _261  and  _263
REMARK  107  A    between atoms: _263  and  _264
REMARK  108  A    between atoms: _266  and  _268
REMARK  109  A    between atoms: _268  and  _269
REMARK  110  A    between atoms: _268  and  _271
REMARK  111  A    between atoms: _271  and  _272
REMARK  112  A    between atoms: _272  and  _273
REMARK  113  A    between atoms: _273  and  _274
REMARK  114  A    between atoms: _283  and  _285
REMARK  115  A    between atoms: _285  and  _286
REMARK  116  A    between atoms: _285  and  _288
REMARK  117  A    between atoms: _288  and  _289
REMARK  118  A    between atoms: _292  and  _294
REMARK  119  A    between atoms: _294  and  _295
REMARK  120  A    between atoms: _294  and  _297
REMARK  121  A    between atoms: _300  and  _302
REMARK  122  A    between atoms: _302  and  _303
REMARK  123  A    between atoms: _302  and  _305
REMARK  124  A    between atoms: _305  and  _306
REMARK  125  A    between atoms: _311  and  _313
REMARK  126  A    between atoms: _313  and  _314
REMARK  127  A    between atoms: _313  and  _316
REMARK  128  A    between atoms: _316  and  _317
REMARK  129  A    between atoms: _319  and  _321
REMARK  130  A    between atoms: _321  and  _322
REMARK  131  A    between atoms: _321  and  _324
REMARK  132  A    between atoms: _324  and  _325
REMARK  133  A    between atoms: _330  and  _331
REMARK  134  A    between atoms: _333  and  _335
REMARK  135  A    between atoms: _335  and  _336
REMARK  136  A    between atoms: _335  and  _338
REMARK  137  A    between atoms: _338  and  _339
REMARK  138  A    between atoms: _339  and  _340
REMARK  139  A    between atoms: _342  and  _344
REMARK  140  A    between atoms: _344  and  _345
REMARK  141  A    between atoms: _344  and  _347
REMARK  142  A    between atoms: _347  and  _348
REMARK  143  A    between atoms: _351  and  _353
REMARK  144  A    between atoms: _353  and  _354
REMARK  145  A    between atoms: _353  and  _356
REMARK  146  A    between atoms: _356  and  _357
REMARK  147  A    between atoms: _357  and  _358
REMARK  148  A    between atoms: _358  and  _359
REMARK  149  A    between atoms: _368  and  _370
REMARK  150  A    between atoms: _370  and  _371
REMARK  151  A    between atoms: _370  and  _373
REMARK  152  A    between atoms: _376  and  _378
REMARK  153  A    between atoms: _378  and  _379
REMARK  154  A    between atoms: _378  and  _381
REMARK  155  A    between atoms: _381  and  _382
REMARK  156  A    between atoms: _382  and  _383
REMARK  157  A    between atoms: _388  and  _390
REMARK  158  A    between atoms: _390  and  _391
REMARK  159  A    between atoms: _390  and  _393
REMARK  160  A    between atoms: _393  and  _394
REMARK  161  A    between atoms: _394  and  _395
REMARK  162  A    between atoms: _395  and  _396
REMARK  163  A    between atoms: _405  and  _407
REMARK  164  A    between atoms: _407  and  _408
REMARK  165  A    between atoms: _407  and  _410
REMARK  166  A    between atoms: _410  and  _411
REMARK  167  A    between atoms: _417  and  _418
REMARK  168  A    between atoms: _423  and  _425
REMARK  169  A    between atoms: _425  and  _426
REMARK  170  A    between atoms: _425  and  _428
REMARK  171  A    between atoms: _428  and  _429
REMARK  172  A    between atoms: _433  and  _434
REMARK  173  A    between atoms: _439  and  _441
REMARK  174  A    between atoms: _441  and  _442
REMARK  175  A    between atoms: _441  and  _444
REMARK  176  A    between atoms: _444  and  _445
REMARK  177  A    between atoms: _445  and  _446
REMARK  178  A    between atoms: _446  and  _447
REMARK  179  A    between atoms: _456  and  _458
REMARK  180  A    between atoms: _458  and  _459
REMARK  181  A    between atoms: _458  and  _461
REMARK  182  A    between atoms: _461  and  _462
REMARK  183  A    between atoms: _462  and  _463
REMARK  184  A    between atoms: _466  and  _468
REMARK  185  A    between atoms: _468  and  _469
REMARK  186  A    between atoms: _468  and  _471
REMARK  187  A    between atoms: _471  and  _472
REMARK  188  A    between atoms: _472  and  _473
REMARK  189  A    between atoms: _478  and  _480
REMARK  190  A    between atoms: _480  and  _481
REMARK  191  A    between atoms: _484  and  _486
REMARK  192  A    between atoms: _486  and  _487
REMARK  193  A    between atoms: _486  and  _489
REMARK  194  A    between atoms: _489  and  _490
REMARK  195  A    between atoms: _490  and  _491
REMARK  196  A    between atoms: _491  and  _492
REMARK  197  A    between atoms: _501  and  _503
REMARK  198  A    between atoms: _503  and  _504
REMARK  199  A    between atoms: _503  and  _506
REMARK  200  A    between atoms: _506  and  _507
REMARK  201  A    between atoms: _509  and  _511
REMARK  202  A    between atoms: _511  and  _512
REMARK  203  A    between atoms: _511  and  _514
REMARK  204  A    between atoms: _514  and  _515
REMARK  205  A    between atoms: _518  and  _520
REMARK  206  A    between atoms: _520  and  _521
REMARK  207  A    between atoms: _523  and  _525
REMARK  208  A    between atoms: _525  and  _526
REMARK  209  A    between atoms: _525  and  _528
REMARK  210  A    between atoms: _528  and  _529
REMARK  211  A    between atoms: _529  and  _530
REMARK  212  A    between atoms: _530  and  _531
REMARK  213  A    between atoms: _531  and  _532
REMARK  214  A    between atoms: _536  and  _538
REMARK  215  A    between atoms: _538  and  _539
REMARK  216  A    between atoms: _538  and  _541
REMARK  217  A    between atoms: _541  and  _542
REMARK  218  A    between atoms: _542  and  _543
REMARK  219  A    between atoms: _543  and  _544
REMARK  220  A    between atoms: _544  and  _545
REMARK  221  A    between atoms: _549  and  _551
REMARK  222  A    between atoms: _551  and  _552
REMARK  223  A    between atoms: _551  and  _554
REMARK  224  A    between atoms: _554  and  _555
REMARK  225  A    between atoms: _555  and  _556
REMARK  226  A    between atoms: _559  and  _561
REMARK  227  A    between atoms: _561  and  _562
REMARK  228  A    between atoms: _561  and  _564
REMARK  229  A    between atoms: _567  and  _569
REMARK  230  A    between atoms: _569  and  _570
REMARK  231  A    between atoms: _569  and  _572
REMARK  232  A    between atoms: _572  and  _573
REMARK  233  A    between atoms: _578  and  _579
REMARK                            x       y       z     vdW  Elec       q    Type
REMARK                         _______ _______ _______ _____ _____    ______ ____
ROOT
ATOM      1  O   HOH     1      33.856  28.584  19.876  0.00  0.00    +0.000 OA
ENDROOT
TORSDOF 0
REMARK  Name = ../refined-set-2016/2fzg/2fzg_pocket.pdb
REMARK  233 active torsions:
REMARK  status: ('A' for Active; 'I' for Inactive)
REMARK    1  A    between atoms: _1  and  _3
REMARK    2  A    between atoms: _3  and  _4
REMARK    3  A    between atoms: _3  and  _6
REMARK    4  A    between atoms: _6  and  _7
REMARK    5  A    between atoms: _13  and  _15
REMARK    6  A    between atoms: _15  and  _16
REMARK    7  A    between atoms: _15  and  _18
REMARK    8  A    between atoms: _18  and  _19
REMARK    9  A    between atoms: _19  and  _20
REMARK   10  A    between atoms: _23  and  _25
REMARK   11  A    between atoms: _25  and  _26
REMARK   12  A    between atoms: _29  and  _31
REMARK   13  A    between atoms: _31  and  _32
REMARK   14  A    between atoms: _31  and  _34
REMARK   15  A    between atoms: _34  and  _35
REMARK   16  A    between atoms: _37  and  _39
REMARK   17  A    between atoms: _39  and  _40
REMARK   18  A    between atoms: _39  and  _42
REMARK   19  A    between atoms: _42  and  _43
REMARK   20  A    between atoms: _46  and  _48
REMARK   21  A    between atoms: _48  and  _49
REMARK   22  A    between atoms: _48  and  _51
REMARK   23  A    between atoms: _51  and  _52
REMARK   24  A    between atoms: _52  and  _53
REMARK   25  A    between atoms: _53  and  _54
REMARK   26  A    between atoms: _63  and  _65
REMARK   27  A    between atoms: _65  and  _66
REMARK   28  A    between atoms: _65  and  _68
REMARK   29  A    between atoms: _68  and  _69
REMARK   30  A    between atoms: _72  and  _74
REMARK   31  A    between atoms: _74  and  _75
REMARK   32  A    between atoms: _74  and  _77
REMARK   33  A    between atoms: _77  and  _78
REMARK   34  A    between atoms: _78  and  _79
REMARK   35  A    between atoms: _79  and  _80
REMARK   36  A    between atoms: _89  and  _91
REMARK   37  A    between atoms: _91  and  _92
REMARK   38  A    between atoms: _91  and  _94
REMARK   39  A    between atoms: _94  and  _95
REMARK   40  A    between atoms: _98  and  _100
REMARK   41  A    between atoms: _100  and  _101
REMARK   42  A    between atoms: _100  and  _103
REMARK   43  A    between atoms: _103  and  _104
REMARK   44  A    between atoms: _106  and  _108
REMARK   45  A    between atoms: _108  and  _109
REMARK   46  A    between atoms: _108  and  _111
REMARK   47  A    between atoms: _111  and  _112
REMARK   48  A    between atoms: _118  and  _120
REMARK   49  A    between atoms: _120  and  _121
REMARK   50  A    between atoms: _120  and  _123
REMARK   51  A    between atoms: _123  and  _124
REMARK   52  A    between atoms: _124  and  _125
REMARK   53  A    between atoms: _125  and  _126
REMARK   54  A    between atoms: _135  and  _137
REMARK   55  A    between atoms: _137  and  _138
REMARK   56  A    between atoms: _141  and  _143
REMARK   57  A    between atoms: _143  and  _144
REMARK   58  A    between atoms: _146  and  _148
REMARK   59  A    between atoms: _148  and  _149
REMARK   60  A    between atoms: _148  and  _151
REMARK   61  A    between atoms: _151  and  _152
REMARK   62  A    between atoms: _155  and  _157
REMARK   63  A    between atoms: _157  and  _158
REMARK   64  A    between atoms: _160  and  _162
REMARK   65  A    between atoms: _162  and  _163
REMARK   66  A    between atoms: _162  and  _165
REMARK   67  A    between atoms: _165  and  _166
REMARK   68  A    between atoms: _168  and  _170
REMARK   69  A    between atoms: _170  and  _171
REMARK   70  A    between atoms: _170  and  _173
REMARK   71  A    between atoms: _173  and  _174
REMARK   72  A    between atoms: _174  and  _175
REMARK   73  A    between atoms: _180  and  _182
REMARK   74  A    between atoms: _182  and  _183
REMARK   75  A    between atoms: _182  and  _185
REMARK   76  A    between atoms: _185  and  _186
REMARK   77  A    between atoms: _191  and  _193
REMARK   78  A    between atoms: _193  and  _194
REMARK   79  A    between atoms: _193  and  _196
REMARK   80  A    between atoms: _196  and  _197
REMARK   81  A    between atoms: _200  and  _202
REMARK   82  A    between atoms: _202  and  _203
REMARK   83  A    between atoms: _202  and  _205
REMARK   84  A    between atoms: _205  and  _206
REMARK   85  A    between atoms: _206  and  _207
REMARK   86  A    between atoms: _212  and  _214
REMARK   87  A    between atoms: _214  and  _215
REMARK   88  A    between atoms: _214  and  _217
REMARK   89  A    between atoms: _217  and  _218
REMARK   90  A    between atoms: _221  and  _223
REMARK   91  A    between atoms: _223  and  _224
REMARK   92  A    between atoms: _223  and  _226
REMARK   93  A    between atoms: _226  and  _227
REMARK   94  A    between atoms: _230  and  _232
REMARK   95  A    between atoms: _232  and  _233
REMARK   96  A    between atoms: _232  and  _235
REMARK   97  A    between atoms: _238  and  _240
REMARK   98  A    between atoms: _240  and  _241
REMARK   99  A    between atoms: _240  and  _243
REMARK  100  A    between atoms: _243  and  _244
REMARK  101  A    between atoms: _247  and  _249
REMARK  102  A    between atoms: _249  and  _250
REMARK  103  A    between atoms: _249  and  _252
REMARK  104  A    between atoms: _252  and  _253
REMARK  105  A    between atoms: _258  and  _259
REMARK  106  A    between atoms: _261  and  _263
REMARK  107  A    between atoms: _263  and  _264
REMARK  108  A    between atoms: _266  and  _268
REMARK  109  A    between atoms: _268  and  _269
REMARK  110  A    between atoms: _268  and  _271
REMARK  111  A    between atoms: _271  and  _272
REMARK  112  A    between atoms: _272  and  _273
REMARK  113  A    between atoms: _273  and  _274
REMARK  114  A    between atoms: _283  and  _285
REMARK  115  A    between atoms: _285  and  _286
REMARK  116  A    between atoms: _285  and  _288
REMARK  117  A    between atoms: _288  and  _289
REMARK  118  A    between atoms: _292  and  _294
REMARK  119  A    between atoms: _294  and  _295
REMARK  120  A    between atoms: _294  and  _297
REMARK  121  A    between atoms: _300  and  _302
REMARK  122  A    between atoms: _302  and  _303
REMARK  123  A    between atoms: _302  and  _305
REMARK  124  A    between atoms: _305  and  _306
REMARK  125  A    between atoms: _311  and  _313
REMARK  126  A    between atoms: _313  and  _314
REMARK  127  A    between atoms: _313  and  _316
REMARK  128  A    between atoms: _316  and  _317
REMARK  129  A    between atoms: _319  and  _321
REMARK  130  A    between atoms: _321  and  _322
REMARK  131  A    between atoms: _321  and  _324
REMARK  132  A    between atoms: _324  and  _325
REMARK  133  A    between atoms: _330  and  _331
REMARK  134  A    between atoms: _333  and  _335
REMARK  135  A    between atoms: _335  and  _336
REMARK  136  A    between atoms: _335  and  _338
REMARK  137  A    between atoms: _338  and  _339
REMARK  138  A    between atoms: _339  and  _340
REMARK  139  A    between atoms: _342  and  _344
REMARK  140  A    between atoms: _344  and  _345
REMARK  141  A    between atoms: _344  and  _347
REMARK  142  A    between atoms: _347  and  _348
REMARK  143  A    between atoms: _351  and  _353
REMARK  144  A    between atoms: _353  and  _354
REMARK  145  A    between atoms: _353  and  _356
REMARK  146  A    between atoms: _356  and  _357
REMARK  147  A    between atoms: _357  and  _358
REMARK  148  A    between atoms: _358  and  _359
REMARK  149  A    between atoms: _368  and  _370
REMARK  150  A    between atoms: _370  and  _371
REMARK  151  A    between atoms: _370  and  _373
REMARK  152  A    between atoms: _376  and  _378
REMARK  153  A    between atoms: _378  and  _379
REMARK  154  A    between atoms: _378  and  _381
REMARK  155  A    between atoms: _381  and  _382
REMARK  156  A    between atoms: _382  and  _383
REMARK  157  A    between atoms: _388  and  _390
REMARK  158  A    between atoms: _390  and  _391
REMARK  159  A    between atoms: _390  and  _393
REMARK  160  A    between atoms: _393  and  _394
REMARK  161  A    between atoms: _394  and  _395
REMARK  162  A    between atoms: _395  and  _396
REMARK  163  A    between atoms: _405  and  _407
REMARK  164  A    between atoms: _407  and  _408
REMARK  165  A    between atoms: _407  and  _410
REMARK  166  A    between atoms: _410  and  _411
REMARK  167  A    between atoms: _417  and  _418
REMARK  168  A    between atoms: _423  and  _425
REMARK  169  A    between atoms: _425  and  _426
REMARK  170  A    between atoms: _425  and  _428
REMARK  171  A    between atoms: _428  and  _429
REMARK  172  A    between atoms: _433  and  _434
REMARK  173  A    between atoms: _439  and  _441
REMARK  174  A    between atoms: _441  and  _442
REMARK  175  A    between atoms: _441  and  _444
REMARK  176  A    between atoms: _444  and  _445
REMARK  177  A    between atoms: _445  and  _446
REMARK  178  A    between atoms: _446  and  _447
REMARK  179  A    between atoms: _456  and  _458
REMARK  180  A    between atoms: _458  and  _459
REMARK  181  A    between atoms: _458  and  _461
REMARK  182  A    between atoms: _461  and  _462
REMARK  183  A    between atoms: _462  and  _463
REMARK  184  A    between atoms: _466  and  _468
REMARK  185  A    between atoms: _468  and  _469
REMARK  186  A    between atoms: _468  and  _471
REMARK  187  A    between atoms: _471  and  _472
REMARK  188  A    between atoms: _472  and  _473
REMARK  189  A    between atoms: _478  and  _480
REMARK  190  A    between atoms: _480  and  _481
REMARK  191  A    between atoms: _484  and  _486
REMARK  192  A    between atoms: _486  and  _487
REMARK  193  A    between atoms: _486  and  _489
REMARK  194  A    between atoms: _489  and  _490
REMARK  195  A    between atoms: _490  and  _491
REMARK  196  A    between atoms: _491  and  _492
REMARK  197  A    between atoms: _501  and  _503
REMARK  198  A    between atoms: _503  and  _504
REMARK  199  A    between atoms: _503  and  _506
REMARK  200  A    between atoms: _506  and  _507
REMARK  201  A    between atoms: _509  and  _511
REMARK  202  A    between atoms: _511  and  _512
REMARK  203  A    between atoms: _511  and  _514
REMARK  204  A    between atoms: _514  and  _515
REMARK  205  A    between atoms: _518  and  _520
REMARK  206  A    between atoms: _520  and  _521
REMARK  207  A    between atoms: _523  and  _525
REMARK  208  A    between atoms: _525  and  _526
REMARK  209  A    between atoms: _525  and  _528
REMARK  210  A    between atoms: _528  and  _529
REMARK  211  A    between atoms: _529  and  _530
REMARK  212  A    between atoms: _530  and  _531
REMARK  213  A    between atoms: _531  and  _532
REMARK  214  A    between atoms: _536  and  _538
REMARK  215  A    between atoms: _538  and  _539
REMARK  216  A    between atoms: _538  and  _541
REMARK  217  A    between atoms: _541  and  _542
REMARK  218  A    between atoms: _542  and  _543
REMARK  219  A    between atoms: _543  and  _544
REMARK  220  A    between atoms: _544  and  _545
REMARK  221  A    between atoms: _549  and  _551
REMARK  222  A    between atoms: _551  and  _552
REMARK  223  A    between atoms: _551  and  _554
REMARK  224  A    between atoms: _554  and  _555
REMARK  225  A    between atoms: _555  and  _556
REMARK  226  A    between atoms: _559  and  _561
REMARK  227  A    between atoms: _561  and  _562
REMARK  228  A    between atoms: _561  and  _564
REMARK  229  A    between atoms: _567  and  _569
REMARK  230  A    between atoms: _569  and  _570
REMARK  231  A    between atoms: _569  and  _572
REMARK  232  A    between atoms: _572  and  _573
REMARK  233  A    between atoms: _578  and  _579
REMARK                            x       y       z     vdW  Elec       q    Type
REMARK                         _______ _______ _______ _____ _____    ______ ____
ROOT
ATOM      1  O   HOH     1      45.831  32.047  20.620  0.00  0.00    +0.000 OA
ENDROOT
TORSDOF 0
REMARK  Name = ../refined-set-2016/2fzg/2fzg_pocket.pdb
REMARK  233 active torsions:
REMARK  status: ('A' for Active; 'I' for Inactive)
REMARK    1  A    between atoms: _1  and  _3
REMARK    2  A    between atoms: _3  and  _4
REMARK    3  A    between atoms: _3  and  _6
REMARK    4  A    between atoms: _6  and  _7
REMARK    5  A    between atoms: _13  and  _15
REMARK    6  A    between atoms: _15  and  _16
REMARK    7  A    between atoms: _15  and  _18
REMARK    8  A    between atoms: _18  and  _19
REMARK    9  A    between atoms: _19  and  _20
REMARK   10  A    between atoms: _23  and  _25
REMARK   11  A    between atoms: _25  and  _26
REMARK   12  A    between atoms: _29  and  _31
REMARK   13  A    between atoms: _31  and  _32
REMARK   14  A    between atoms: _31  and  _34
REMARK   15  A    between atoms: _34  and  _35
REMARK   16  A    between atoms: _37  and  _39
REMARK   17  A    between atoms: _39  and  _40
REMARK   18  A    between atoms: _39  and  _42
REMARK   19  A    between atoms: _42  and  _43
REMARK   20  A    between atoms: _46  and  _48
REMARK   21  A    between atoms: _48  and  _49
REMARK   22  A    between atoms: _48  and  _51
REMARK   23  A    between atoms: _51  and  _52
REMARK   24  A    between atoms: _52  and  _53
REMARK   25  A    between atoms: _53  and  _54
REMARK   26  A    between atoms: _63  and  _65
REMARK   27  A    between atoms: _65  and  _66
REMARK   28  A    between atoms: _65  and  _68
REMARK   29  A    between atoms: _68  and  _69
REMARK   30  A    between atoms: _72  and  _74
REMARK   31  A    between atoms: _74  and  _75
REMARK   32  A    between atoms: _74  and  _77
REMARK   33  A    between atoms: _77  and  _78
REMARK   34  A    between atoms: _78  and  _79
REMARK   35  A    between atoms: _79  and  _80
REMARK   36  A    between atoms: _89  and  _91
REMARK   37  A    between atoms: _91  and  _92
REMARK   38  A    between atoms: _91  and  _94
REMARK   39  A    between atoms: _94  and  _95
REMARK   40  A    between atoms: _98  and  _100
REMARK   41  A    between atoms: _100  and  _101
REMARK   42  A    between atoms: _100  and  _103
REMARK   43  A    between atoms: _103  and  _104
REMARK   44  A    between atoms: _106  and  _108
REMARK   45  A    between atoms: _108  and  _109
REMARK   46  A    between atoms: _108  and  _111
REMARK   47  A    between atoms: _111  and  _112
REMARK   48  A    between atoms: _118  and  _120
REMARK   49  A    between atoms: _120  and  _121
REMARK   50  A    between atoms: _120  and  _123
REMARK   51  A    between atoms: _123  and  _124
REMARK   52  A    between atoms: _124  and  _125
REMARK   53  A    between atoms: _125  and  _126
REMARK   54  A    between atoms: _135  and  _137
REMARK   55  A    between atoms: _137  and  _138
REMARK   56  A    between atoms: _141  and  _143
REMARK   57  A    between atoms: _143  and  _144
REMARK   58  A    between atoms: _146  and  _148
REMARK   59  A    between atoms: _148  and  _149
REMARK   60  A    between atoms: _148  and  _151
REMARK   61  A    between atoms: _151  and  _152
REMARK   62  A    between atoms: _155  and  _157
REMARK   63  A    between atoms: _157  and  _158
REMARK   64  A    between atoms: _160  and  _162
REMARK   65  A    between atoms: _162  and  _163
REMARK   66  A    between atoms: _162  and  _165
REMARK   67  A    between atoms: _165  and  _166
REMARK   68  A    between atoms: _168  and  _170
REMARK   69  A    between atoms: _170  and  _171
REMARK   70  A    between atoms: _170  and  _173
REMARK   71  A    between atoms: _173  and  _174
REMARK   72  A    between atoms: _174  and  _175
REMARK   73  A    between atoms: _180  and  _182
REMARK   74  A    between atoms: _182  and  _183
REMARK   75  A    between atoms: _182  and  _185
REMARK   76  A    between atoms: _185  and  _186
REMARK   77  A    between atoms: _191  and  _193
REMARK   78  A    between atoms: _193  and  _194
REMARK   79  A    between atoms: _193  and  _196
REMARK   80  A    between atoms: _196  and  _197
REMARK   81  A    between atoms: _200  and  _202
REMARK   82  A    between atoms: _202  and  _203
REMARK   83  A    between atoms: _202  and  _205
REMARK   84  A    between atoms: _205  and  _206
REMARK   85  A    between atoms: _206  and  _207
REMARK   86  A    between atoms: _212  and  _214
REMARK   87  A    between atoms: _214  and  _215
REMARK   88  A    between atoms: _214  and  _217
REMARK   89  A    between atoms: _217  and  _218
REMARK   90  A    between atoms: _221  and  _223
REMARK   91  A    between atoms: _223  and  _224
REMARK   92  A    between atoms: _223  and  _226
REMARK   93  A    between atoms: _226  and  _227
REMARK   94  A    between atoms: _230  and  _232
REMARK   95  A    between atoms: _232  and  _233
REMARK   96  A    between atoms: _232  and  _235
REMARK   97  A    between atoms: _238  and  _240
REMARK   98  A    between atoms: _240  and  _241
REMARK   99  A    between atoms: _240  and  _243
REMARK  100  A    between atoms: _243  and  _244
REMARK  101  A    between atoms: _247  and  _249
REMARK  102  A    between atoms: _249  and  _250
REMARK  103  A    between atoms: _249  and  _252
REMARK  104  A    between atoms: _252  and  _253
REMARK  105  A    between atoms: _258  and  _259
REMARK  106  A    between atoms: _261  and  _263
REMARK  107  A    between atoms: _263  and  _264
REMARK  108  A    between atoms: _266  and  _268
REMARK  109  A    between atoms: _268  and  _269
REMARK  110  A    between atoms: _268  and  _271
REMARK  111  A    between atoms: _271  and  _272
REMARK  112  A    between atoms: _272  and  _273
REMARK  113  A    between atoms: _273  and  _274
REMARK  114  A    between atoms: _283  and  _285
REMARK  115  A    between atoms: _285  and  _286
REMARK  116  A    between atoms: _285  and  _288
REMARK  117  A    between atoms: _288  and  _289
REMARK  118  A    between atoms: _292  and  _294
REMARK  119  A    between atoms: _294  and  _295
REMARK  120  A    between atoms: _294  and  _297
REMARK  121  A    between atoms: _300  and  _302
REMARK  122  A    between atoms: _302  and  _303
REMARK  123  A    between atoms: _302  and  _305
REMARK  124  A    between atoms: _305  and  _306
REMARK  125  A    between atoms: _311  and  _313
REMARK  126  A    between atoms: _313  and  _314
REMARK  127  A    between atoms: _313  and  _316
REMARK  128  A    between atoms: _316  and  _317
REMARK  129  A    between atoms: _319  and  _321
REMARK  130  A    between atoms: _321  and  _322
REMARK  131  A    between atoms: _321  and  _324
REMARK  132  A    between atoms: _324  and  _325
REMARK  133  A    between atoms: _330  and  _331
REMARK  134  A    between atoms: _333  and  _335
REMARK  135  A    between atoms: _335  and  _336
REMARK  136  A    between atoms: _335  and  _338
REMARK  137  A    between atoms: _338  and  _339
REMARK  138  A    between atoms: _339  and  _340
REMARK  139  A    between atoms: _342  and  _344
REMARK  140  A    between atoms: _344  and  _345
REMARK  141  A    between atoms: _344  and  _347
REMARK  142  A    between atoms: _347  and  _348
REMARK  143  A    between atoms: _351  and  _353
REMARK  144  A    between atoms: _353  and  _354
REMARK  145  A    between atoms: _353  and  _356
REMARK  146  A    between atoms: _356  and  _357
REMARK  147  A    between atoms: _357  and  _358
REMARK  148  A    between atoms: _358  and  _359
REMARK  149  A    between atoms: _368  and  _370
REMARK  150  A    between atoms: _370  and  _371
REMARK  151  A    between atoms: _370  and  _373
REMARK  152  A    between atoms: _376  and  _378
REMARK  153  A    between atoms: _378  and  _379
REMARK  154  A    between atoms: _378  and  _381
REMARK  155  A    between atoms: _381  and  _382
REMARK  156  A    between atoms: _382  and  _383
REMARK  157  A    between atoms: _388  and  _390
REMARK  158  A    between atoms: _390  and  _391
REMARK  159  A    between atoms: _390  and  _393
REMARK  160  A    between atoms: _393  and  _394
REMARK  161  A    between atoms: _394  and  _395
REMARK  162  A    between atoms: _395  and  _396
REMARK  163  A    between atoms: _405  and  _407
REMARK  164  A    between atoms: _407  and  _408
REMARK  165  A    between atoms: _407  and  _410
REMARK  166  A    between atoms: _410  and  _411
REMARK  167  A    between atoms: _417  and  _418
REMARK  168  A    between atoms: _423  and  _425
REMARK  169  A    between atoms: _425  and  _426
REMARK  170  A    between atoms: _425  and  _428
REMARK  171  A    between atoms: _428  and  _429
REMARK  172  A    between atoms: _433  and  _434
REMARK  173  A    between atoms: _439  and  _441
REMARK  174  A    between atoms: _441  and  _442
REMARK  175  A    between atoms: _441  and  _444
REMARK  176  A    between atoms: _444  and  _445
REMARK  177  A    between atoms: _445  and  _446
REMARK  178  A    between atoms: _446  and  _447
REMARK  179  A    between atoms: _456  and  _458
REMARK  180  A    between atoms: _458  and  _459
REMARK  181  A    between atoms: _458  and  _461
REMARK  182  A    between atoms: _461  and  _462
REMARK  183  A    between atoms: _462  and  _463
REMARK  184  A    between atoms: _466  and  _468
REMARK  185  A    between atoms: _468  and  _469
REMARK  186  A    between atoms: _468  and  _471
REMARK  187  A    between atoms: _471  and  _472
REMARK  188  A    between atoms: _472  and  _473
REMARK  189  A    between atoms: _478  and  _480
REMARK  190  A    between atoms: _480  and  _481
REMARK  191  A    between atoms: _484  and  _486
REMARK  192  A    between atoms: _486  and  _487
REMARK  193  A    between atoms: _486  and  _489
REMARK  194  A    between atoms: _489  and  _490
REMARK  195  A    between atoms: _490  and  _491
REMARK  196  A    between atoms: _491  and  _492
REMARK  197  A    between atoms: _501  and  _503
REMARK  198  A    between atoms: _503  and  _504
REMARK  199  A    between atoms: _503  and  _506
REMARK  200  A    between atoms: _506  and  _507
REMARK  201  A    between atoms: _509  and  _511
REMARK  202  A    between atoms: _511  and  _512
REMARK  203  A    between atoms: _511  and  _514
REMARK  204  A    between atoms: _514  and  _515
REMARK  205  A    between atoms: _518  and  _520
REMARK  206  A    between atoms: _520  and  _521
REMARK  207  A    between atoms: _523  and  _525
REMARK  208  A    between atoms: _525  and  _526
REMARK  209  A    between atoms: _525  and  _528
REMARK  210  A    between atoms: _528  and  _529
REMARK  211  A    between atoms: _529  and  _530
REMARK  212  A    between atoms: _530  and  _531
REMARK  213  A    between atoms: _531  and  _532
REMARK  214  A    between atoms: _536  and  _538
REMARK  215  A    between atoms: _538  and  _539
REMARK  216  A    between atoms: _538  and  _541
REMARK  217  A    between atoms: _541  and  _542
REMARK  218  A    between atoms: _542  and  _543
REMARK  219  A    between atoms: _543  and  _544
REMARK  220  A    between atoms: _544  and  _545
REMARK  221  A    between atoms: _549  and  _551
REMARK  222  A    between atoms: _551  and  _552
REMARK  223  A    between atoms: _551  and  _554
REMARK  224  A    between atoms: _554  and  _555
REMARK  225  A    between atoms: _555  and  _556
REMARK  226  A    between atoms: _559  and  _561
REMARK  227  A    between atoms: _561  and  _562
REMARK  228  A    between atoms: _561  and  _564
REMARK  229  A    between atoms: _567  and  _569
REMARK  230  A    between atoms: _569  and  _570
REMARK  231  A    between atoms: _569  and  _572
REMARK  232  A    between atoms: _572  and  _573
REMARK  233  A    between atoms: _578  and  _579
REMARK                            x       y       z     vdW  Elec       q    Type
REMARK                         _______ _______ _______ _____ _____    ______ ____
ROOT
ATOM      1  O   HOH     1      48.352  32.225  23.050  0.00  0.00    +0.000 OA
ENDROOT
TORSDOF 0
REMARK  Name = ../refined-set-2016/2fzg/2fzg_pocket.pdb
REMARK  233 active torsions:
REMARK  status: ('A' for Active; 'I' for Inactive)
REMARK    1  A    between atoms: _1  and  _3
REMARK    2  A    between atoms: _3  and  _4
REMARK    3  A    between atoms: _3  and  _6
REMARK    4  A    between atoms: _6  and  _7
REMARK    5  A    between atoms: _13  and  _15
REMARK    6  A    between atoms: _15  and  _16
REMARK    7  A    between atoms: _15  and  _18
REMARK    8  A    between atoms: _18  and  _19
REMARK    9  A    between atoms: _19  and  _20
REMARK   10  A    between atoms: _23  and  _25
REMARK   11  A    between atoms: _25  and  _26
REMARK   12  A    between atoms: _29  and  _31
REMARK   13  A    between atoms: _31  and  _32
REMARK   14  A    between atoms: _31  and  _34
REMARK   15  A    between atoms: _34  and  _35
REMARK   16  A    between atoms: _37  and  _39
REMARK   17  A    between atoms: _39  and  _40
REMARK   18  A    between atoms: _39  and  _42
REMARK   19  A    between atoms: _42  and  _43
REMARK   20  A    between atoms: _46  and  _48
REMARK   21  A    between atoms: _48  and  _49
REMARK   22  A    between atoms: _48  and  _51
REMARK   23  A    between atoms: _51  and  _52
REMARK   24  A    between atoms: _52  and  _53
REMARK   25  A    between atoms: _53  and  _54
REMARK   26  A    between atoms: _63  and  _65
REMARK   27  A    between atoms: _65  and  _66
REMARK   28  A    between atoms: _65  and  _68
REMARK   29  A    between atoms: _68  and  _69
REMARK   30  A    between atoms: _72  and  _74
REMARK   31  A    between atoms: _74  and  _75
REMARK   32  A    between atoms: _74  and  _77
REMARK   33  A    between atoms: _77  and  _78
REMARK   34  A    between atoms: _78  and  _79
REMARK   35  A    between atoms: _79  and  _80
REMARK   36  A    between atoms: _89  and  _91
REMARK   37  A    between atoms: _91  and  _92
REMARK   38  A    between atoms: _91  and  _94
REMARK   39  A    between atoms: _94  and  _95
REMARK   40  A    between atoms: _98  and  _100
REMARK   41  A    between atoms: _100  and  _101
REMARK   42  A    between atoms: _100  and  _103
REMARK   43  A    between atoms: _103  and  _104
REMARK   44  A    between atoms: _106  and  _108
REMARK   45  A    between atoms: _108  and  _109
REMARK   46  A    between atoms: _108  and  _111
REMARK   47  A    between atoms: _111  and  _112
REMARK   48  A    between atoms: _118  and  _120
REMARK   49  A    between atoms: _120  and  _121
REMARK   50  A    between atoms: _120  and  _123
REMARK   51  A    between atoms: _123  and  _124
REMARK   52  A    between atoms: _124  and  _125
REMARK   53  A    between atoms: _125  and  _126
REMARK   54  A    between atoms: _135  and  _137
REMARK   55  A    between atoms: _137  and  _138
REMARK   56  A    between atoms: _141  and  _143
REMARK   57  A    between atoms: _143  and  _144
REMARK   58  A    between atoms: _146  and  _148
REMARK   59  A    between atoms: _148  and  _149
REMARK   60  A    between atoms: _148  and  _151
REMARK   61  A    between atoms: _151  and  _152
REMARK   62  A    between atoms: _155  and  _157
REMARK   63  A    between atoms: _157  and  _158
REMARK   64  A    between atoms: _160  and  _162
REMARK   65  A    between atoms: _162  and  _163
REMARK   66  A    between atoms: _162  and  _165
REMARK   67  A    between atoms: _165  and  _166
REMARK   68  A    between atoms: _168  and  _170
REMARK   69  A    between atoms: _170  and  _171
REMARK   70  A    between atoms: _170  and  _173
REMARK   71  A    between atoms: _173  and  _174
REMARK   72  A    between atoms: _174  and  _175
REMARK   73  A    between atoms: _180  and  _182
REMARK   74  A    between atoms: _182  and  _183
REMARK   75  A    between atoms: _182  and  _185
REMARK   76  A    between atoms: _185  and  _186
REMARK   77  A    between atoms: _191  and  _193
REMARK   78  A    between atoms: _193  and  _194
REMARK   79  A    between atoms: _193  and  _196
REMARK   80  A    between atoms: _196  and  _197
REMARK   81  A    between atoms: _200  and  _202
REMARK   82  A    between atoms: _202  and  _203
REMARK   83  A    between atoms: _202  and  _205
REMARK   84  A    between atoms: _205  and  _206
REMARK   85  A    between atoms: _206  and  _207
REMARK   86  A    between atoms: _212  and  _214
REMARK   87  A    between atoms: _214  and  _215
REMARK   88  A    between atoms: _214  and  _217
REMARK   89  A    between atoms: _217  and  _218
REMARK   90  A    between atoms: _221  and  _223
REMARK   91  A    between atoms: _223  and  _224
REMARK   92  A    between atoms: _223  and  _226
REMARK   93  A    between atoms: _226  and  _227
REMARK   94  A    between atoms: _230  and  _232
REMARK   95  A    between atoms: _232  and  _233
REMARK   96  A    between atoms: _232  and  _235
REMARK   97  A    between atoms: _238  and  _240
REMARK   98  A    between atoms: _240  and  _241
REMARK   99  A    between atoms: _240  and  _243
REMARK  100  A    between atoms: _243  and  _244
REMARK  101  A    between atoms: _247  and  _249
REMARK  102  A    between atoms: _249  and  _250
REMARK  103  A    between atoms: _249  and  _252
REMARK  104  A    between atoms: _252  and  _253
REMARK  105  A    between atoms: _258  and  _259
REMARK  106  A    between atoms: _261  and  _263
REMARK  107  A    between atoms: _263  and  _264
REMARK  108  A    between atoms: _266  and  _268
REMARK  109  A    between atoms: _268  and  _269
REMARK  110  A    between atoms: _268  and  _271
REMARK  111  A    between atoms: _271  and  _272
REMARK  112  A    between atoms: _272  and  _273
REMARK  113  A    between atoms: _273  and  _274
REMARK  114  A    between atoms: _283  and  _285
REMARK  115  A    between atoms: _285  and  _286
REMARK  116  A    between atoms: _285  and  _288
REMARK  117  A    between atoms: _288  and  _289
REMARK  118  A    between atoms: _292  and  _294
REMARK  119  A    between atoms: _294  and  _295
REMARK  120  A    between atoms: _294  and  _297
REMARK  121  A    between atoms: _300  and  _302
REMARK  122  A    between atoms: _302  and  _303
REMARK  123  A    between atoms: _302  and  _305
REMARK  124  A    between atoms: _305  and  _306
REMARK  125  A    between atoms: _311  and  _313
REMARK  126  A    between atoms: _313  and  _314
REMARK  127  A    between atoms: _313  and  _316
REMARK  128  A    between atoms: _316  and  _317
REMARK  129  A    between atoms: _319  and  _321
REMARK  130  A    between atoms: _321  and  _322
REMARK  131  A    between atoms: _321  and  _324
REMARK  132  A    between atoms: _324  and  _325
REMARK  133  A    between atoms: _330  and  _331
REMARK  134  A    between atoms: _333  and  _335
REMARK  135  A    between atoms: _335  and  _336
REMARK  136  A    between atoms: _335  and  _338
REMARK  137  A    between atoms: _338  and  _339
REMARK  138  A    between atoms: _339  and  _340
REMARK  139  A    between atoms: _342  and  _344
REMARK  140  A    between atoms: _344  and  _345
REMARK  141  A    between atoms: _344  and  _347
REMARK  142  A    between atoms: _347  and  _348
REMARK  143  A    between atoms: _351  and  _353
REMARK  144  A    between atoms: _353  and  _354
REMARK  145  A    between atoms: _353  and  _356
REMARK  146  A    between atoms: _356  and  _357
REMARK  147  A    between atoms: _357  and  _358
REMARK  148  A    between atoms: _358  and  _359
REMARK  149  A    between atoms: _368  and  _370
REMARK  150  A    between atoms: _370  and  _371
REMARK  151  A    between atoms: _370  and  _373
REMARK  152  A    between atoms: _376  and  _378
REMARK  153  A    between atoms: _378  and  _379
REMARK  154  A    between atoms: _378  and  _381
REMARK  155  A    between atoms: _381  and  _382
REMARK  156  A    between atoms: _382  and  _383
REMARK  157  A    between atoms: _388  and  _390
REMARK  158  A    between atoms: _390  and  _391
REMARK  159  A    between atoms: _390  and  _393
REMARK  160  A    between atoms: _393  and  _394
REMARK  161  A    between atoms: _394  and  _395
REMARK  162  A    between atoms: _395  and  _396
REMARK  163  A    between atoms: _405  and  _407
REMARK  164  A    between atoms: _407  and  _408
REMARK  165  A    between atoms: _407  and  _410
REMARK  166  A    between atoms: _410  and  _411
REMARK  167  A    between atoms: _417  and  _418
REMARK  168  A    between atoms: _423  and  _425
REMARK  169  A    between atoms: _425  and  _426
REMARK  170  A    between atoms: _425  and  _428
REMARK  171  A    between atoms: _428  and  _429
REMARK  172  A    between atoms: _433  and  _434
REMARK  173  A    between atoms: _439  and  _441
REMARK  174  A    between atoms: _441  and  _442
REMARK  175  A    between atoms: _441  and  _444
REMARK  176  A    between atoms: _444  and  _445
REMARK  177  A    between atoms: _445  and  _446
REMARK  178  A    between atoms: _446  and  _447
REMARK  179  A    between atoms: _456  and  _458
REMARK  180  A    between atoms: _458  and  _459
REMARK  181  A    between atoms: _458  and  _461
REMARK  182  A    between atoms: _461  and  _462
REMARK  183  A    between atoms: _462  and  _463
REMARK  184  A    between atoms: _466  and  _468
REMARK  185  A    between atoms: _468  and  _469
REMARK  186  A    between atoms: _468  and  _471
REMARK  187  A    between atoms: _471  and  _472
REMARK  188  A    between atoms: _472  and  _473
REMARK  189  A    between atoms: _478  and  _480
REMARK  190  A    between atoms: _480  and  _481
REMARK  191  A    between atoms: _484  and  _486
REMARK  192  A    between atoms: _486  and  _487
REMARK  193  A    between atoms: _486  and  _489
REMARK  194  A    between atoms: _489  and  _490
REMARK  195  A    between atoms: _490  and  _491
REMARK  196  A    between atoms: _491  and  _492
REMARK  197  A    between atoms: _501  and  _503
REMARK  198  A    between atoms: _503  and  _504
REMARK  199  A    between atoms: _503  and  _506
REMARK  200  A    between atoms: _506  and  _507
REMARK  201  A    between atoms: _509  and  _511
REMARK  202  A    between atoms: _511  and  _512
REMARK  203  A    between atoms: _511  and  _514
REMARK  204  A    between atoms: _514  and  _515
REMARK  205  A    between atoms: _518  and  _520
REMARK  206  A    between atoms: _520  and  _521
REMARK  207  A    between atoms: _523  and  _525
REMARK  208  A    between atoms: _525  and  _526
REMARK  209  A    between atoms: _525  and  _528
REMARK  210  A    between atoms: _528  and  _529
REMARK  211  A    between atoms: _529  and  _530
REMARK  212  A    between atoms: _530  and  _531
REMARK  213  A    between atoms: _531  and  _532
REMARK  214  A    between atoms: _536  and  _538
REMARK  215  A    between atoms: _538  and  _539
REMARK  216  A    between atoms: _538  and  _541
REMARK  217  A    between atoms: _541  and  _542
REMARK  218  A    between atoms: _542  and  _543
REMARK  219  A    between atoms: _543  and  _544
REMARK  220  A    between atoms: _544  and  _545
REMARK  221  A    between atoms: _549  and  _551
REMARK  222  A    between atoms: _551  and  _552
REMARK  223  A    between atoms: _551  and  _554
REMARK  224  A    between atoms: _554  and  _555
REMARK  225  A    between atoms: _555  and  _556
REMARK  226  A    between atoms: _559  and  _561
REMARK  227  A    between atoms: _561  and  _562
REMARK  228  A    between atoms: _561  and  _564
REMARK  229  A    between atoms: _567  and  _569
REMARK  230  A    between atoms: _569  and  _570
REMARK  231  A    between atoms: _569  and  _572
REMARK  232  A    between atoms: _572  and  _573
REMARK  233  A    between atoms: _578  and  _579
REMARK                            x       y       z     vdW  Elec       q    Type
REMARK                         _______ _______ _______ _____ _____    ______ ____
ROOT
ATOM      1  O   HOH     1      37.392  33.774  25.190  0.00  0.00    +0.000 OA
ENDROOT
TORSDOF 0
REMARK  Name = ../refined-set-2016/2fzg/2fzg_pocket.pdb
REMARK  233 active torsions:
REMARK  status: ('A' for Active; 'I' for Inactive)
REMARK    1  A    between atoms: _1  and  _3
REMARK    2  A    between atoms: _3  and  _4
REMARK    3  A    between atoms: _3  and  _6
REMARK    4  A    between atoms: _6  and  _7
REMARK    5  A    between atoms: _13  and  _15
REMARK    6  A    between atoms: _15  and  _16
REMARK    7  A    between atoms: _15  and  _18
REMARK    8  A    between atoms: _18  and  _19
REMARK    9  A    between atoms: _19  and  _20
REMARK   10  A    between atoms: _23  and  _25
REMARK   11  A    between atoms: _25  and  _26
REMARK   12  A    between atoms: _29  and  _31
REMARK   13  A    between atoms: _31  and  _32
REMARK   14  A    between atoms: _31  and  _34
REMARK   15  A    between atoms: _34  and  _35
REMARK   16  A    between atoms: _37  and  _39
REMARK   17  A    between atoms: _39  and  _40
REMARK   18  A    between atoms: _39  and  _42
REMARK   19  A    between atoms: _42  and  _43
REMARK   20  A    between atoms: _46  and  _48
REMARK   21  A    between atoms: _48  and  _49
REMARK   22  A    between atoms: _48  and  _51
REMARK   23  A    between atoms: _51  and  _52
REMARK   24  A    between atoms: _52  and  _53
REMARK   25  A    between atoms: _53  and  _54
REMARK   26  A    between atoms: _63  and  _65
REMARK   27  A    between atoms: _65  and  _66
REMARK   28  A    between atoms: _65  and  _68
REMARK   29  A    between atoms: _68  and  _69
REMARK   30  A    between atoms: _72  and  _74
REMARK   31  A    between atoms: _74  and  _75
REMARK   32  A    between atoms: _74  and  _77
REMARK   33  A    between atoms: _77  and  _78
REMARK   34  A    between atoms: _78  and  _79
REMARK   35  A    between atoms: _79  and  _80
REMARK   36  A    between atoms: _89  and  _91
REMARK   37  A    between atoms: _91  and  _92
REMARK   38  A    between atoms: _91  and  _94
REMARK   39  A    between atoms: _94  and  _95
REMARK   40  A    between atoms: _98  and  _100
REMARK   41  A    between atoms: _100  and  _101
REMARK   42  A    between atoms: _100  and  _103
REMARK   43  A    between atoms: _103  and  _104
REMARK   44  A    between atoms: _106  and  _108
REMARK   45  A    between atoms: _108  and  _109
REMARK   46  A    between atoms: _108  and  _111
REMARK   47  A    between atoms: _111  and  _112
REMARK   48  A    between atoms: _118  and  _120
REMARK   49  A    between atoms: _120  and  _121
REMARK   50  A    between atoms: _120  and  _123
REMARK   51  A    between atoms: _123  and  _124
REMARK   52  A    between atoms: _124  and  _125
REMARK   53  A    between atoms: _125  and  _126
REMARK   54  A    between atoms: _135  and  _137
REMARK   55  A    between atoms: _137  and  _138
REMARK   56  A    between atoms: _141  and  _143
REMARK   57  A    between atoms: _143  and  _144
REMARK   58  A    between atoms: _146  and  _148
REMARK   59  A    between atoms: _148  and  _149
REMARK   60  A    between atoms: _148  and  _151
REMARK   61  A    between atoms: _151  and  _152
REMARK   62  A    between atoms: _155  and  _157
REMARK   63  A    between atoms: _157  and  _158
REMARK   64  A    between atoms: _160  and  _162
REMARK   65  A    between atoms: _162  and  _163
REMARK   66  A    between atoms: _162  and  _165
REMARK   67  A    between atoms: _165  and  _166
REMARK   68  A    between atoms: _168  and  _170
REMARK   69  A    between atoms: _170  and  _171
REMARK   70  A    between atoms: _170  and  _173
REMARK   71  A    between atoms: _173  and  _174
REMARK   72  A    between atoms: _174  and  _175
REMARK   73  A    between atoms: _180  and  _182
REMARK   74  A    between atoms: _182  and  _183
REMARK   75  A    between atoms: _182  and  _185
REMARK   76  A    between atoms: _185  and  _186
REMARK   77  A    between atoms: _191  and  _193
REMARK   78  A    between atoms: _193  and  _194
REMARK   79  A    between atoms: _193  and  _196
REMARK   80  A    between atoms: _196  and  _197
REMARK   81  A    between atoms: _200  and  _202
REMARK   82  A    between atoms: _202  and  _203
REMARK   83  A    between atoms: _202  and  _205
REMARK   84  A    between atoms: _205  and  _206
REMARK   85  A    between atoms: _206  and  _207
REMARK   86  A    between atoms: _212  and  _214
REMARK   87  A    between atoms: _214  and  _215
REMARK   88  A    between atoms: _214  and  _217
REMARK   89  A    between atoms: _217  and  _218
REMARK   90  A    between atoms: _221  and  _223
REMARK   91  A    between atoms: _223  and  _224
REMARK   92  A    between atoms: _223  and  _226
REMARK   93  A    between atoms: _226  and  _227
REMARK   94  A    between atoms: _230  and  _232
REMARK   95  A    between atoms: _232  and  _233
REMARK   96  A    between atoms: _232  and  _235
REMARK   97  A    between atoms: _238  and  _240
REMARK   98  A    between atoms: _240  and  _241
REMARK   99  A    between atoms: _240  and  _243
REMARK  100  A    between atoms: _243  and  _244
REMARK  101  A    between atoms: _247  and  _249
REMARK  102  A    between atoms: _249  and  _250
REMARK  103  A    between atoms: _249  and  _252
REMARK  104  A    between atoms: _252  and  _253
REMARK  105  A    between atoms: _258  and  _259
REMARK  106  A    between atoms: _261  and  _263
REMARK  107  A    between atoms: _263  and  _264
REMARK  108  A    between atoms: _266  and  _268
REMARK  109  A    between atoms: _268  and  _269
REMARK  110  A    between atoms: _268  and  _271
REMARK  111  A    between atoms: _271  and  _272
REMARK  112  A    between atoms: _272  and  _273
REMARK  113  A    between atoms: _273  and  _274
REMARK  114  A    between atoms: _283  and  _285
REMARK  115  A    between atoms: _285  and  _286
REMARK  116  A    between atoms: _285  and  _288
REMARK  117  A    between atoms: _288  and  _289
REMARK  118  A    between atoms: _292  and  _294
REMARK  119  A    between atoms: _294  and  _295
REMARK  120  A    between atoms: _294  and  _297
REMARK  121  A    between atoms: _300  and  _302
REMARK  122  A    between atoms: _302  and  _303
REMARK  123  A    between atoms: _302  and  _305
REMARK  124  A    between atoms: _305  and  _306
REMARK  125  A    between atoms: _311  and  _313
REMARK  126  A    between atoms: _313  and  _314
REMARK  127  A    between atoms: _313  and  _316
REMARK  128  A    between atoms: _316  and  _317
REMARK  129  A    between atoms: _319  and  _321
REMARK  130  A    between atoms: _321  and  _322
REMARK  131  A    between atoms: _321  and  _324
REMARK  132  A    between atoms: _324  and  _325
REMARK  133  A    between atoms: _330  and  _331
REMARK  134  A    between atoms: _333  and  _335
REMARK  135  A    between atoms: _335  and  _336
REMARK  136  A    between atoms: _335  and  _338
REMARK  137  A    between atoms: _338  and  _339
REMARK  138  A    between atoms: _339  and  _340
REMARK  139  A    between atoms: _342  and  _344
REMARK  140  A    between atoms: _344  and  _345
REMARK  141  A    between atoms: _344  and  _347
REMARK  142  A    between atoms: _347  and  _348
REMARK  143  A    between atoms: _351  and  _353
REMARK  144  A    between atoms: _353  and  _354
REMARK  145  A    between atoms: _353  and  _356
REMARK  146  A    between atoms: _356  and  _357
REMARK  147  A    between atoms: _357  and  _358
REMARK  148  A    between atoms: _358  and  _359
REMARK  149  A    between atoms: _368  and  _370
REMARK  150  A    between atoms: _370  and  _371
REMARK  151  A    between atoms: _370  and  _373
REMARK  152  A    between atoms: _376  and  _378
REMARK  153  A    between atoms: _378  and  _379
REMARK  154  A    between atoms: _378  and  _381
REMARK  155  A    between atoms: _381  and  _382
REMARK  156  A    between atoms: _382  and  _383
REMARK  157  A    between atoms: _388  and  _390
REMARK  158  A    between atoms: _390  and  _391
REMARK  159  A    between atoms: _390  and  _393
REMARK  160  A    between atoms: _393  and  _394
REMARK  161  A    between atoms: _394  and  _395
REMARK  162  A    between atoms: _395  and  _396
REMARK  163  A    between atoms: _405  and  _407
REMARK  164  A    between atoms: _407  and  _408
REMARK  165  A    between atoms: _407  and  _410
REMARK  166  A    between atoms: _410  and  _411
REMARK  167  A    between atoms: _417  and  _418
REMARK  168  A    between atoms: _423  and  _425
REMARK  169  A    between atoms: _425  and  _426
REMARK  170  A    between atoms: _425  and  _428
REMARK  171  A    between atoms: _428  and  _429
REMARK  172  A    between atoms: _433  and  _434
REMARK  173  A    between atoms: _439  and  _441
REMARK  174  A    between atoms: _441  and  _442
REMARK  175  A    between atoms: _441  and  _444
REMARK  176  A    between atoms: _444  and  _445
REMARK  177  A    between atoms: _445  and  _446
REMARK  178  A    between atoms: _446  and  _447
REMARK  179  A    between atoms: _456  and  _458
REMARK  180  A    between atoms: _458  and  _459
REMARK  181  A    between atoms: _458  and  _461
REMARK  182  A    between atoms: _461  and  _462
REMARK  183  A    between atoms: _462  and  _463
REMARK  184  A    between atoms: _466  and  _468
REMARK  185  A    between atoms: _468  and  _469
REMARK  186  A    between atoms: _468  and  _471
REMARK  187  A    between atoms: _471  and  _472
REMARK  188  A    between atoms: _472  and  _473
REMARK  189  A    between atoms: _478  and  _480
REMARK  190  A    between atoms: _480  and  _481
REMARK  191  A    between atoms: _484  and  _486
REMARK  192  A    between atoms: _486  and  _487
REMARK  193  A    between atoms: _486  and  _489
REMARK  194  A    between atoms: _489  and  _490
REMARK  195  A    between atoms: _490  and  _491
REMARK  196  A    between atoms: _491  and  _492
REMARK  197  A    between atoms: _501  and  _503
REMARK  198  A    between atoms: _503  and  _504
REMARK  199  A    between atoms: _503  and  _506
REMARK  200  A    between atoms: _506  and  _507
REMARK  201  A    between atoms: _509  and  _511
REMARK  202  A    between atoms: _511  and  _512
REMARK  203  A    between atoms: _511  and  _514
REMARK  204  A    between atoms: _514  and  _515
REMARK  205  A    between atoms: _518  and  _520
REMARK  206  A    between atoms: _520  and  _521
REMARK  207  A    between atoms: _523  and  _525
REMARK  208  A    between atoms: _525  and  _526
REMARK  209  A    between atoms: _525  and  _528
REMARK  210  A    between atoms: _528  and  _529
REMARK  211  A    between atoms: _529  and  _530
REMARK  212  A    between atoms: _530  and  _531
REMARK  213  A    between atoms: _531  and  _532
REMARK  214  A    between atoms: _536  and  _538
REMARK  215  A    between atoms: _538  and  _539
REMARK  216  A    between atoms: _538  and  _541
REMARK  217  A    between atoms: _541  and  _542
REMARK  218  A    between atoms: _542  and  _543
REMARK  219  A    between atoms: _543  and  _544
REMARK  220  A    between atoms: _544  and  _545
REMARK  221  A    between atoms: _549  and  _551
REMARK  222  A    between atoms: _551  and  _552
REMARK  223  A    between atoms: _551  and  _554
REMARK  224  A    between atoms: _554  and  _555
REMARK  225  A    between atoms: _555  and  _556
REMARK  226  A    between atoms: _559  and  _561
REMARK  227  A    between atoms: _561  and  _562
REMARK  228  A    between atoms: _561  and  _564
REMARK  229  A    between atoms: _567  and  _569
REMARK  230  A    between atoms: _569  and  _570
REMARK  231  A    between atoms: _569  and  _572
REMARK  232  A    between atoms: _572  and  _573
REMARK  233  A    between atoms: _578  and  _579
REMARK                            x       y       z     vdW  Elec       q    Type
REMARK                         _______ _______ _______ _____ _____    ______ ____
ROOT
ATOM      1  O   HOH     1      45.229  29.452  19.767  0.00  0.00    +0.000 OA
ENDROOT
TORSDOF 0
