REMARK  Name = ../refined-set-2016/3d50/3d50_pocket.pdb
REMARK  154 active torsions:
REMARK  status: ('A' for Active; 'I' for Inactive)
REMARK    1  A    between atoms: _1  and  _3
REMARK    2  A    between atoms: _14  and  _17
REMARK    3  A    between atoms: _17  and  _18
REMARK    4  A    between atoms: _25  and  _26
REMARK    5  A    between atoms: _33  and  _34
REMARK    6  A    between atoms: _39  and  _41
REMARK    7  A    between atoms: _41  and  _42
REMARK    8  A    between atoms: _44  and  _46
REMARK    9  A    between atoms: _46  and  _47
REMARK   10  A    between atoms: _46  and  _49
REMARK   11  A    between atoms: _49  and  _50
REMARK   12  A    between atoms: _60  and  _62
REMARK   13  A    between atoms: _62  and  _63
REMARK   14  A    between atoms: _62  and  _65
REMARK   15  A    between atoms: _65  and  _66
REMARK   16  A    between atoms: _69  and  _71
REMARK   17  A    between atoms: _71  and  _72
REMARK   18  A    between atoms: _71  and  _74
REMARK   19  A    between atoms: _74  and  _75
REMARK   20  A    between atoms: _80  and  _81
REMARK   21  A    between atoms: _83  and  _85
REMARK   22  A    between atoms: _85  and  _86
REMARK   23  A    between atoms: _85  and  _88
REMARK   24  A    between atoms: _88  and  _89
REMARK   25  A    between atoms: _89  and  _90
REMARK   26  A    between atoms: _92  and  _94
REMARK   27  A    between atoms: _94  and  _95
REMARK   28  A    between atoms: _94  and  _97
REMARK   29  A    between atoms: _97  and  _98
REMARK   30  A    between atoms: _101  and  _103
REMARK   31  A    between atoms: _103  and  _104
REMARK   32  A    between atoms: _103  and  _106
REMARK   33  A    between atoms: _106  and  _107
REMARK   34  A    between atoms: _107  and  _109
REMARK   35  A    between atoms: _109  and  ZN_423
REMARK   36  A    between atoms: _111  and  _112
REMARK   37  A    between atoms: _117  and  _119
REMARK   38  A    between atoms: _119  and  _120
REMARK   39  A    between atoms: _119  and  _122
REMARK   40  A    between atoms: _122  and  _123
REMARK   41  A    between atoms: _129  and  _131
REMARK   42  A    between atoms: _131  and  _132
REMARK   43  A    between atoms: _131  and  _134
REMARK   44  A    between atoms: _134  and  _135
REMARK   45  A    between atoms: _135  and  _136
REMARK   46  A    between atoms: _136  and  _137
REMARK   47  A    between atoms: _146  and  _148
REMARK   48  A    between atoms: _148  and  _149
REMARK   49  A    between atoms: _148  and  _151
REMARK   50  A    between atoms: _151  and  _152
REMARK   51  A    between atoms: _157  and  _158
REMARK   52  A    between atoms: _160  and  _162
REMARK   53  A    between atoms: _162  and  _163
REMARK   54  A    between atoms: _162  and  _165
REMARK   55  A    between atoms: _165  and  _166
REMARK   56  A    between atoms: _168  and  _170
REMARK   57  A    between atoms: _170  and  _171
REMARK   58  A    between atoms: _170  and  _173
REMARK   59  A    between atoms: _173  and  _174
REMARK   60  A    between atoms: _179  and  _180
REMARK   61  A    between atoms: _182  and  _184
REMARK   62  A    between atoms: _184  and  _185
REMARK   63  A    between atoms: _184  and  _187
REMARK   64  A    between atoms: _187  and  _188
REMARK   65  A    between atoms: _191  and  _193
REMARK   66  A    between atoms: _193  and  _194
REMARK   67  A    between atoms: _193  and  _196
REMARK   68  A    between atoms: _196  and  _197
REMARK   69  A    between atoms: _197  and  _198
REMARK   70  A    between atoms: _198  and  _199
REMARK   71  A    between atoms: _208  and  _210
REMARK   72  A    between atoms: _210  and  _211
REMARK   73  A    between atoms: _210  and  _213
REMARK   74  A    between atoms: _213  and  _214
REMARK   75  A    between atoms: _217  and  _219
REMARK   76  A    between atoms: _219  and  _220
REMARK   77  A    between atoms: _219  and  _222
REMARK   78  A    between atoms: _222  and  _223
REMARK   79  A    between atoms: _226  and  _228
REMARK   80  A    between atoms: _228  and  _229
REMARK   81  A    between atoms: _228  and  _231
REMARK   82  A    between atoms: _231  and  _232
REMARK   83  A    between atoms: _238  and  _240
REMARK   84  A    between atoms: _240  and  _241
REMARK   85  A    between atoms: _240  and  _243
REMARK   86  A    between atoms: _243  and  _244
REMARK   87  A    between atoms: _249  and  _250
REMARK   88  A    between atoms: _252  and  _254
REMARK   89  A    between atoms: _254  and  _255
REMARK   90  A    between atoms: _254  and  _257
REMARK   91  A    between atoms: _257  and  _258
REMARK   92  A    between atoms: _261  and  _263
REMARK   93  A    between atoms: _263  and  _264
REMARK   94  A    between atoms: _263  and  _266
REMARK   95  A    between atoms: _266  and  _267
REMARK   96  A    between atoms: _267  and  _268
REMARK   97  A    between atoms: _268  and  _269
REMARK   98  A    between atoms: _278  and  _280
REMARK   99  A    between atoms: _280  and  _281
REMARK  100  A    between atoms: _280  and  _283
REMARK  101  A    between atoms: _283  and  _284
REMARK  102  A    between atoms: _294  and  _296
REMARK  103  A    between atoms: _296  and  _297
REMARK  104  A    between atoms: _296  and  _299
REMARK  105  A    between atoms: _299  and  _300
REMARK  106  A    between atoms: _305  and  _307
REMARK  107  A    between atoms: _307  and  _308
REMARK  108  A    between atoms: _307  and  _310
REMARK  109  A    between atoms: _310  and  _311
REMARK  110  A    between atoms: _315  and  ZN_423
REMARK  111  A    between atoms: _316  and  _318
REMARK  112  A    between atoms: _318  and  _319
REMARK  113  A    between atoms: _318  and  _321
REMARK  114  A    between atoms: _321  and  _322
REMARK  115  A    between atoms: _325  and  _327
REMARK  116  A    between atoms: _327  and  _328
REMARK  117  A    between atoms: _330  and  _332
REMARK  118  A    between atoms: _332  and  _333
REMARK  119  A    between atoms: _332  and  _335
REMARK  120  A    between atoms: _335  and  _336
REMARK  121  A    between atoms: _339  and  _341
REMARK  122  A    between atoms: _341  and  _342
REMARK  123  A    between atoms: _341  and  _344
REMARK  124  A    between atoms: _344  and  _345
REMARK  125  A    between atoms: _348  and  _350
REMARK  126  A    between atoms: _350  and  _351
REMARK  127  A    between atoms: _354  and  _356
REMARK  128  A    between atoms: _356  and  _357
REMARK  129  A    between atoms: _356  and  _359
REMARK  130  A    between atoms: _359  and  _360
REMARK  131  A    between atoms: _365  and  _366
REMARK  132  A    between atoms: _368  and  _370
REMARK  133  A    between atoms: _370  and  _371
REMARK  134  A    between atoms: _370  and  _373
REMARK  135  A    between atoms: _373  and  _374
REMARK  136  A    between atoms: _377  and  _379
REMARK  137  A    between atoms: _379  and  _380
REMARK  138  A    between atoms: _379  and  _382
REMARK  139  A    between atoms: _382  and  _383
REMARK  140  A    between atoms: _383  and  _384
REMARK  141  A    between atoms: _387  and  _389
REMARK  142  A    between atoms: _389  and  _390
REMARK  143  A    between atoms: _389  and  _392
REMARK  144  A    between atoms: _392  and  _393
REMARK  145  A    between atoms: _393  and  _394
REMARK  146  A    between atoms: _394  and  _395
REMARK  147  A    between atoms: _404  and  _406
REMARK  148  A    between atoms: _406  and  _407
REMARK  149  A    between atoms: _409  and  _411
REMARK  150  A    between atoms: _411  and  _412
REMARK  151  A    between atoms: _411  and  _414
REMARK  152  A    between atoms: _414  and  _415
REMARK  153  A    between atoms: _418  and  _420
REMARK  154  A    between atoms: _420  and  _421
REMARK                            x       y       z     vdW  Elec       q    Type
REMARK                         _______ _______ _______ _____ _____    ______ ____
ROOT
ATOM      1  C   UNK A   1      36.621  61.482  13.659  0.00  0.00    +0.000 C 
ATOM      2  C   UNK A   1      37.292  62.904  13.598  0.00  0.00    +0.000 C 
ATOM      3  O   UNK A   1      36.797  63.898  14.160  0.00  0.00    +0.000 OA
ATOM      4  N   UNK A   2      38.471  62.946  13.003  0.00  0.00    +0.000 N 
ATOM      5  C   UNK A   2      39.191  64.195  12.895  0.00  0.00    +0.000 C 
ATOM      6  C   UNK A   2      39.302  64.692  11.451  0.00  0.00    +0.000 C 
ATOM      7  N   UNK A   3      38.557  65.727  11.071  0.00  0.00    +0.000 N 
ATOM      8  H   UNK A   3      37.915  66.171  11.758  0.00  0.00    +0.000 HD
ATOM      9  C   UNK A   3      38.624  66.262   9.683  0.00  0.00    +0.000 C 
ATOM     10  C   UNK A   3      37.437  67.229   9.498  0.00  0.00    +0.000 C 
ATOM     11  C   UNK A   3      36.141  66.525   9.424  0.00  0.00    +0.000 C 
ATOM     12  O   UNK A   3      35.153  66.941  10.106  0.00  0.00    +0.000 OA
ATOM     13  O   UNK A   3      36.102  65.497   8.734  0.00  0.00    +0.000 OA
ATOM     14 ZN   UNK A   1      34.421  64.283   8.177  0.00  0.00    +0.000 Zn
ATOM     15  N   UNK A   1      34.931  62.772   9.579  0.00  0.00    +0.000 N 
ATOM     16  C   UNK A   1      34.685  62.927  10.920  0.00  0.00    +0.000 A 
ATOM     17  C   UNK A   1      35.217  61.859  11.557  0.00  0.00    +0.000 A 
ATOM     18  N   UNK A   1      35.800  61.086  10.587  0.00  0.00    +0.000 NA
ATOM     19  C   UNK A   1      35.644  61.664   9.400  0.00  0.00    +0.000 A 
ATOM     20  O   UNK A   2      40.129  64.187  10.728  0.00  0.00    +0.000 OA
ATOM     21  H   UNK A   2      38.883  62.076  12.610  0.00  0.00    +0.000 HD
ATOM     22  C   UNK A   1      35.218  61.483  13.019  0.00  0.00    +0.000 C 
ENDROOT
BRANCH   9  23
ATOM     23  C   UNK A   3      39.912  67.081   9.524  0.00  0.00    +0.000 C 
ATOM     24  O   UNK A   3      40.157  67.983  10.354  0.00  0.00    +0.000 OA
ATOM     25  N   GLY A   4      40.740  66.757   8.537  0.00  0.00    +0.000 N 
ATOM     26  CA  GLY A   4      41.936  67.554   8.234  0.00  0.00    +0.000 C 
ATOM     27  CB  GLY A   4      42.777  66.619   7.357  0.00  0.00    +0.000 C 
ATOM     28  CG  GLY A   4      42.262  65.272   7.608  0.00  0.00    +0.000 C 
ATOM     29  CD  GLY A   4      40.794  65.438   7.890  0.00  0.00    +0.000 C 
BRANCH  26  30
ATOM     30  C   GLY A   4      41.572  68.851   7.486  0.00  0.00    +0.000 C 
ATOM     31  N   GLY A   5      40.903  69.726   8.220  0.00  0.00    +0.000 N 
ATOM     32  H   GLY A   5      40.796  69.514   9.233  0.00  0.00    +0.000 HD
ATOM     33  O   GLY A   4      41.884  69.039   6.329  0.00  0.00    +0.000 OA
BRANCH  31  34
ATOM     34  CA  GLY A   5      40.305  70.959   7.730  0.00  0.00    +0.000 C 
BRANCH  34  35
ATOM     35  C   GLY A   5      38.843  70.731   7.466  0.00  0.00    +0.000 C 
ATOM     36  N   TRP A   6      38.049  71.739   7.849  0.00  0.00    +0.000 N 
ATOM     37  H   TRP A   6      38.450  72.535   8.385  0.00  0.00    +0.000 HD
ATOM     38  O   GLY A   5      38.445  69.682   6.868  0.00  0.00    +0.000 OA
BRANCH  36  39
ATOM     39  CA  TRP A   6      36.622  71.731   7.521  0.00  0.00    +0.000 C 
BRANCH  39  40
ATOM     40  C   TRP A   6      36.059  73.099   7.961  0.00  0.00    +0.000 C 
ATOM     41  N   ILE A   7      35.661  73.236   9.223  0.00  0.00    +0.000 N 
ATOM     42  H   ILE A   7      35.627  72.400   9.841  0.00  0.00    +0.000 HD
ATOM     43  O   TRP A   6      36.052  74.029   7.188  0.00  0.00    +0.000 OA
BRANCH  41  44
ATOM     44  CA  ILE A   7      35.263  74.562   9.767  0.00  0.00    +0.000 C 
BRANCH  44  45
ATOM     45  C   ILE A   7      36.460  75.304  10.357  0.00  0.00    +0.000 C 
ATOM     46  O   ILE A   7      36.385  76.526  10.584  0.00  0.00    +0.000 OA
ENDBRANCH  44  45
BRANCH  44  47
ATOM     47  CB  ILE A   7      34.156  74.405  10.882  0.00  0.00    +0.000 C 
ATOM     48  CG2 ILE A   7      34.103  75.636  11.852  0.00  0.00    +0.000 C 
BRANCH  47  49
ATOM     49  CG1 ILE A   7      32.816  73.956  10.278  0.00  0.00    +0.000 C 
ATOM     50  CD1 ILE A   7      32.609  74.254   8.917  0.00  0.00    +0.000 C 
ENDBRANCH  47  49
ENDBRANCH  44  47
ENDBRANCH  41  44
ENDBRANCH  39  40
BRANCH  39  51
ATOM     51  CB  TRP A   6      35.845  70.563   8.152  0.00  0.00    +0.000 C 
BRANCH  51  52
ATOM     52  CG  TRP A   6      34.365  70.679   7.834  0.00  0.00    +0.000 A 
ATOM     53  CD2 TRP A   6      33.274  70.490   8.743  0.00  0.00    +0.000 A 
ATOM     54  CE3 TRP A   6      33.196  70.217  10.119  0.00  0.00    +0.000 A 
ATOM     55  CZ3 TRP A   6      31.896  70.102  10.718  0.00  0.00    +0.000 A 
ATOM     56  CH2 TRP A   6      30.698  70.301   9.939  0.00  0.00    +0.000 A 
ATOM     57  CZ2 TRP A   6      30.762  70.617   8.615  0.00  0.00    +0.000 A 
ATOM     58  CE2 TRP A   6      32.069  70.692   8.009  0.00  0.00    +0.000 A 
ATOM     59  NE1 TRP A   6      32.417  71.020   6.727  0.00  0.00    +0.000 N 
ATOM     60  HE1 TRP A   6      31.751  71.234   5.957  0.00  0.00    +0.000 HD
ATOM     61  CD1 TRP A   6      33.803  71.022   6.619  0.00  0.00    +0.000 A 
ENDBRANCH  51  52
ENDBRANCH  39  51
ENDBRANCH  36  39
ENDBRANCH  34  35
ENDBRANCH  31  34
ENDBRANCH  26  30
ENDBRANCH   9  23
BRANCH  14  62
ATOM     62  N   UNK A   1      35.398  63.635   6.393  0.00  0.00    +0.000 N 
ATOM     63  C   UNK A   1      36.408  62.798   6.197  0.00  0.00    +0.000 A 
ATOM     64  N   UNK A   1      36.569  62.656   4.880  0.00  0.00    +0.000 NA
ATOM     65  C   UNK A   1      35.616  63.424   4.226  0.00  0.00    +0.000 A 
ATOM     66  C   UNK A   1      34.866  63.999   5.191  0.00  0.00    +0.000 A 
BRANCH  65  67
ATOM     67  C   UNK A   1      35.498  63.500   2.718  0.00  0.00    +0.000 C 
BRANCH  67  68
ATOM     68  C   UNK A   1      36.314  64.679   2.090  0.00  0.00    +0.000 C 
BRANCH  68  69
ATOM     69  N   UNK A   1      37.703  64.547   2.481  0.00  0.00    +0.000 N 
ATOM     70  H   UNK A   1      37.942  63.932   3.285  0.00  0.00    +0.000 HD
ATOM     71  C   UNK A   1      38.688  65.189   1.843  0.00  0.00    +0.000 C 
ATOM     72  O   UNK A   1      38.472  65.937   0.867  0.00  0.00    +0.000 OA
BRANCH  71  73
ATOM     73  C   UNK A   1      40.151  64.962   2.358  0.00  0.00    +0.000 C 
BRANCH  73  74
ATOM     74  N   UNK A   1      41.107  64.984   1.238  0.00  0.00    +0.000 NA
ATOM     75  H   UNK A   1      41.992  65.522   1.334  0.00  0.00    +0.000 HD
ENDBRANCH  73  74
BRANCH  73  76
ATOM     76  C   UNK A   1      40.524  66.074   3.337  0.00  0.00    +0.000 C 
BRANCH  76  77
ATOM     77  C   UNK A   1      39.522  66.236   4.447  0.00  0.00    +0.000 A 
ATOM     78  N   UNK A   1      38.894  65.165   5.072  0.00  0.00    +0.000 NA
ATOM     79  C   UNK A   1      37.987  65.639   5.923  0.00  0.00    +0.000 A 
ATOM     80  N   UNK A   1      38.042  66.970   5.896  0.00  0.00    +0.000 NA
ATOM     81  C   UNK A   1      38.997  67.366   5.001  0.00  0.00    +0.000 A 
ENDBRANCH  76  77
ENDBRANCH  73  76
ENDBRANCH  71  73
ENDBRANCH  68  69
BRANCH  68  82
ATOM     82  C   UNK A   1      35.663  66.050   2.387  0.00  0.00    +0.000 C 
ATOM     83  N   UNK A   3      36.473  67.023   2.883  0.00  0.00    +0.000 N 
ATOM     84  H   UNK A   3      37.390  66.755   3.293  0.00  0.00    +0.000 HD
ATOM     85  O   UNK A   1      34.418  66.179   2.202  0.00  0.00    +0.000 OA
BRANCH  83  86
ATOM     86  C   UNK A   3      36.083  68.473   2.856  0.00  0.00    +0.000 C 
BRANCH  86  87
ATOM     87  C   UNK A   3      37.045  69.349   2.048  0.00  0.00    +0.000 C 
ATOM     88  O   UNK A   3      36.940  70.590   2.114  0.00  0.00    +0.000 OA
ATOM     89  N   GLY A   4      37.993  68.712   1.334  0.00  0.00    +0.000 N 
ATOM     90  H   GLY A   4      38.027  67.673   1.353  0.00  0.00    +0.000 HD
BRANCH  89  91
ATOM     91  CA  GLY A   4      38.968  69.435   0.540  0.00  0.00    +0.000 C 
BRANCH  91  92
ATOM     92  C   GLY A   4      38.454  69.564  -0.862  0.00  0.00    +0.000 C 
ATOM     93  O   GLY A   4      37.662  70.505  -1.171  0.00  0.00    +0.000 OA
ENDBRANCH  91  92
ENDBRANCH  89  91
ENDBRANCH  86  87
BRANCH  86  94
ATOM     94  C   UNK A   3      35.938  69.074   4.280  0.00  0.00    +0.000 C 
BRANCH  94  95
ATOM     95  C   UNK A   3      34.851  68.347   5.111  0.00  0.00    +0.000 C 
ATOM     96  O   UNK A   3      35.202  67.775   6.135  0.00  0.00    +0.000 OA
ATOM     97  O   UNK A   3      33.645  68.291   4.697  0.00  0.00    +0.000 OA
ENDBRANCH  94  95
ENDBRANCH  86  94
ENDBRANCH  83  86
ENDBRANCH  68  82
ENDBRANCH  67  68
ENDBRANCH  65  67
ENDBRANCH  14  62
BRANCH   1  98
ATOM     98  N   UNK A   1      36.569  61.045  15.058  0.00  0.00    +0.000 NA
ATOM     99  H   UNK A   1      35.705  61.189  15.619  0.00  0.00    +0.000 HD
ENDBRANCH   1  98
BRANCH   5 100
ATOM    100  C   UNK A   2      40.613  64.024  13.444  0.00  0.00    +0.000 C 
BRANCH 100 101
ATOM    101  C   UNK A   2      40.654  63.894  14.985  0.00  0.00    +0.000 C 
ATOM    102  O   UNK A   2      41.305  64.692  15.700  0.00  0.00    +0.000 OA
ATOM    103  N   UNK A   2      40.014  62.839  15.504  0.00  0.00    +0.000 N 
ATOM    104  H   UNK A   2      40.048  62.662  16.528  0.00  0.00    +0.000 HD
ATOM    105  H   UNK A   2      39.483  62.196  14.883  0.00  0.00    +0.000 HD
ENDBRANCH 100 101
ENDBRANCH   5 100
BRANCH  14 106
ATOM    106  O   UNK A   1      32.574  63.369   7.535  0.00  0.00    +0.000 OA
BRANCH 106 107
ATOM    107  C   UNK A   1      32.027  62.233   7.516  0.00  0.00    +0.000 C 
ATOM    108  O   UNK A   1      30.755  62.056   7.665  0.00  0.00    +0.000 OA
BRANCH 107 109
ATOM    109  C   UNK A   1      32.958  61.017   7.308  0.00  0.00    +0.000 C 
BRANCH 109 110
ATOM    110  C   UNK A   1      32.326  59.935   6.396  0.00  0.00    +0.000 C 
BRANCH 110 111
ATOM    111  C   UNK A   1      32.297  60.405   4.926  0.00  0.00    +0.000 C 
ATOM    112  O   UNK A   1      31.529  61.315   4.637  0.00  0.00    +0.000 OA
ATOM    113  N   UNK A   3      33.014  59.812   3.971  0.00  0.00    +0.000 N 
ATOM    114  C   UNK A   3      33.997  58.726   4.035  0.00  0.00    +0.000 C 
ATOM    115  C   UNK A   3      34.617  58.741   2.656  0.00  0.00    +0.000 C 
ATOM    116  C   UNK A   3      33.625  59.257   1.756  0.00  0.00    +0.000 C 
ATOM    117  C   UNK A   3      32.834  60.269   2.574  0.00  0.00    +0.000 C 
BRANCH 117 118
ATOM    118  C   UNK A   3      31.374  60.232   2.125  0.00  0.00    +0.000 C 
ATOM    119  O   UNK A   3      30.674  59.355   2.542  0.00  0.00    +0.000 OA
ATOM    120  N   GLY A   4      30.949  61.158   1.272  0.00  0.00    +0.000 N 
ATOM    121  H   GLY A   4      31.639  61.756   0.774  0.00  0.00    +0.000 HD
BRANCH 120 122
ATOM    122  CA  GLY A   4      29.514  61.345   1.026  0.00  0.00    +0.000 C 
BRANCH 122 123
ATOM    123  C   GLY A   4      29.066  60.445  -0.126  0.00  0.00    +0.000 C 
ATOM    124  O   GLY A   4      28.900  60.907  -1.276  0.00  0.00    +0.000 OA
ENDBRANCH 122 123
BRANCH 122 125
ATOM    125  CB  GLY A   4      29.245  62.825   0.691  0.00  0.00    +0.000 C 
BRANCH 125 126
ATOM    126  CG  GLY A   4      30.034  63.813   1.594  0.00  0.00    +0.000 A 
ATOM    127  CD2 GLY A   4      30.183  63.538   2.981  0.00  0.00    +0.000 A 
ATOM    128  CE2 GLY A   4      30.938  64.427   3.835  0.00  0.00    +0.000 A 
ATOM    129  CZ  GLY A   4      31.532  65.628   3.261  0.00  0.00    +0.000 A 
ATOM    130  CE1 GLY A   4      31.341  65.948   1.843  0.00  0.00    +0.000 A 
ATOM    131  CD1 GLY A   4      30.615  64.983   1.020  0.00  0.00    +0.000 A 
ENDBRANCH 125 126
ENDBRANCH 122 125
ENDBRANCH 120 122
ENDBRANCH 117 118
ENDBRANCH 110 111
BRANCH 110 132
ATOM    132  N   UNK A   1      32.816  58.576   6.678  0.00  0.00    +0.000 N 
ATOM    133  C   UNK A   1      32.126  57.767   7.482  0.00  0.00    +0.000 C 
ATOM    134  O   UNK A   1      30.959  58.018   7.861  0.00  0.00    +0.000 OA
ATOM    135  H   UNK A   1      33.704  58.246   6.248  0.00  0.00    +0.000 HD
BRANCH 133 136
ATOM    136  C   UNK A   1      32.808  56.480   7.936  0.00  0.00    +0.000 C 
BRANCH 136 137
ATOM    137  N   UNK A   1      34.131  56.214   7.369  0.00  0.00    +0.000 NA
ATOM    138  H   UNK A   1      34.990  56.567   7.837  0.00  0.00    +0.000 HD
ENDBRANCH 136 137
BRANCH 136 139
ATOM    139  C   UNK A   1      32.879  56.470   9.476  0.00  0.00    +0.000 C 
ATOM    140  C   UNK A   1      33.131  54.984   9.956  0.00  0.00    +0.000 C 
BRANCH 139 141
ATOM    141  C   UNK A   1      33.930  57.520   9.975  0.00  0.00    +0.000 C 
ATOM    142  C   UNK A   1      33.933  57.768  11.531  0.00  0.00    +0.000 C 
ENDBRANCH 139 141
ENDBRANCH 136 139
ENDBRANCH 133 136
ENDBRANCH 110 132
ENDBRANCH 109 110
ENDBRANCH 107 109
ENDBRANCH 106 107
ENDBRANCH  14 106
TORSDOF 45
REMARK  Name = ../refined-set-2016/3d50/3d50_pocket.pdb
REMARK  154 active torsions:
REMARK  status: ('A' for Active; 'I' for Inactive)
REMARK    1  A    between atoms: _1  and  _3
REMARK    2  A    between atoms: _14  and  _17
REMARK    3  A    between atoms: _17  and  _18
REMARK    4  A    between atoms: _25  and  _26
REMARK    5  A    between atoms: _33  and  _34
REMARK    6  A    between atoms: _39  and  _41
REMARK    7  A    between atoms: _41  and  _42
REMARK    8  A    between atoms: _44  and  _46
REMARK    9  A    between atoms: _46  and  _47
REMARK   10  A    between atoms: _46  and  _49
REMARK   11  A    between atoms: _49  and  _50
REMARK   12  A    between atoms: _60  and  _62
REMARK   13  A    between atoms: _62  and  _63
REMARK   14  A    between atoms: _62  and  _65
REMARK   15  A    between atoms: _65  and  _66
REMARK   16  A    between atoms: _69  and  _71
REMARK   17  A    between atoms: _71  and  _72
REMARK   18  A    between atoms: _71  and  _74
REMARK   19  A    between atoms: _74  and  _75
REMARK   20  A    between atoms: _80  and  _81
REMARK   21  A    between atoms: _83  and  _85
REMARK   22  A    between atoms: _85  and  _86
REMARK   23  A    between atoms: _85  and  _88
REMARK   24  A    between atoms: _88  and  _89
REMARK   25  A    between atoms: _89  and  _90
REMARK   26  A    between atoms: _92  and  _94
REMARK   27  A    between atoms: _94  and  _95
REMARK   28  A    between atoms: _94  and  _97
REMARK   29  A    between atoms: _97  and  _98
REMARK   30  A    between atoms: _101  and  _103
REMARK   31  A    between atoms: _103  and  _104
REMARK   32  A    between atoms: _103  and  _106
REMARK   33  A    between atoms: _106  and  _107
REMARK   34  A    between atoms: _107  and  _109
REMARK   35  A    between atoms: _109  and  ZN_423
REMARK   36  A    between atoms: _111  and  _112
REMARK   37  A    between atoms: _117  and  _119
REMARK   38  A    between atoms: _119  and  _120
REMARK   39  A    between atoms: _119  and  _122
REMARK   40  A    between atoms: _122  and  _123
REMARK   41  A    between atoms: _129  and  _131
REMARK   42  A    between atoms: _131  and  _132
REMARK   43  A    between atoms: _131  and  _134
REMARK   44  A    between atoms: _134  and  _135
REMARK   45  A    between atoms: _135  and  _136
REMARK   46  A    between atoms: _136  and  _137
REMARK   47  A    between atoms: _146  and  _148
REMARK   48  A    between atoms: _148  and  _149
REMARK   49  A    between atoms: _148  and  _151
REMARK   50  A    between atoms: _151  and  _152
REMARK   51  A    between atoms: _157  and  _158
REMARK   52  A    between atoms: _160  and  _162
REMARK   53  A    between atoms: _162  and  _163
REMARK   54  A    between atoms: _162  and  _165
REMARK   55  A    between atoms: _165  and  _166
REMARK   56  A    between atoms: _168  and  _170
REMARK   57  A    between atoms: _170  and  _171
REMARK   58  A    between atoms: _170  and  _173
REMARK   59  A    between atoms: _173  and  _174
REMARK   60  A    between atoms: _179  and  _180
REMARK   61  A    between atoms: _182  and  _184
REMARK   62  A    between atoms: _184  and  _185
REMARK   63  A    between atoms: _184  and  _187
REMARK   64  A    between atoms: _187  and  _188
REMARK   65  A    between atoms: _191  and  _193
REMARK   66  A    between atoms: _193  and  _194
REMARK   67  A    between atoms: _193  and  _196
REMARK   68  A    between atoms: _196  and  _197
REMARK   69  A    between atoms: _197  and  _198
REMARK   70  A    between atoms: _198  and  _199
REMARK   71  A    between atoms: _208  and  _210
REMARK   72  A    between atoms: _210  and  _211
REMARK   73  A    between atoms: _210  and  _213
REMARK   74  A    between atoms: _213  and  _214
REMARK   75  A    between atoms: _217  and  _219
REMARK   76  A    between atoms: _219  and  _220
REMARK   77  A    between atoms: _219  and  _222
REMARK   78  A    between atoms: _222  and  _223
REMARK   79  A    between atoms: _226  and  _228
REMARK   80  A    between atoms: _228  and  _229
REMARK   81  A    between atoms: _228  and  _231
REMARK   82  A    between atoms: _231  and  _232
REMARK   83  A    between atoms: _238  and  _240
REMARK   84  A    between atoms: _240  and  _241
REMARK   85  A    between atoms: _240  and  _243
REMARK   86  A    between atoms: _243  and  _244
REMARK   87  A    between atoms: _249  and  _250
REMARK   88  A    between atoms: _252  and  _254
REMARK   89  A    between atoms: _254  and  _255
REMARK   90  A    between atoms: _254  and  _257
REMARK   91  A    between atoms: _257  and  _258
REMARK   92  A    between atoms: _261  and  _263
REMARK   93  A    between atoms: _263  and  _264
REMARK   94  A    between atoms: _263  and  _266
REMARK   95  A    between atoms: _266  and  _267
REMARK   96  A    between atoms: _267  and  _268
REMARK   97  A    between atoms: _268  and  _269
REMARK   98  A    between atoms: _278  and  _280
REMARK   99  A    between atoms: _280  and  _281
REMARK  100  A    between atoms: _280  and  _283
REMARK  101  A    between atoms: _283  and  _284
REMARK  102  A    between atoms: _294  and  _296
REMARK  103  A    between atoms: _296  and  _297
REMARK  104  A    between atoms: _296  and  _299
REMARK  105  A    between atoms: _299  and  _300
REMARK  106  A    between atoms: _305  and  _307
REMARK  107  A    between atoms: _307  and  _308
REMARK  108  A    between atoms: _307  and  _310
REMARK  109  A    between atoms: _310  and  _311
REMARK  110  A    between atoms: _315  and  ZN_423
REMARK  111  A    between atoms: _316  and  _318
REMARK  112  A    between atoms: _318  and  _319
REMARK  113  A    between atoms: _318  and  _321
REMARK  114  A    between atoms: _321  and  _322
REMARK  115  A    between atoms: _325  and  _327
REMARK  116  A    between atoms: _327  and  _328
REMARK  117  A    between atoms: _330  and  _332
REMARK  118  A    between atoms: _332  and  _333
REMARK  119  A    between atoms: _332  and  _335
REMARK  120  A    between atoms: _335  and  _336
REMARK  121  A    between atoms: _339  and  _341
REMARK  122  A    between atoms: _341  and  _342
REMARK  123  A    between atoms: _341  and  _344
REMARK  124  A    between atoms: _344  and  _345
REMARK  125  A    between atoms: _348  and  _350
REMARK  126  A    between atoms: _350  and  _351
REMARK  127  A    between atoms: _354  and  _356
REMARK  128  A    between atoms: _356  and  _357
REMARK  129  A    between atoms: _356  and  _359
REMARK  130  A    between atoms: _359  and  _360
REMARK  131  A    between atoms: _365  and  _366
REMARK  132  A    between atoms: _368  and  _370
REMARK  133  A    between atoms: _370  and  _371
REMARK  134  A    between atoms: _370  and  _373
REMARK  135  A    between atoms: _373  and  _374
REMARK  136  A    between atoms: _377  and  _379
REMARK  137  A    between atoms: _379  and  _380
REMARK  138  A    between atoms: _379  and  _382
REMARK  139  A    between atoms: _382  and  _383
REMARK  140  A    between atoms: _383  and  _384
REMARK  141  A    between atoms: _387  and  _389
REMARK  142  A    between atoms: _389  and  _390
REMARK  143  A    between atoms: _389  and  _392
REMARK  144  A    between atoms: _392  and  _393
REMARK  145  A    between atoms: _393  and  _394
REMARK  146  A    between atoms: _394  and  _395
REMARK  147  A    between atoms: _404  and  _406
REMARK  148  A    between atoms: _406  and  _407
REMARK  149  A    between atoms: _409  and  _411
REMARK  150  A    between atoms: _411  and  _412
REMARK  151  A    between atoms: _411  and  _414
REMARK  152  A    between atoms: _414  and  _415
REMARK  153  A    between atoms: _418  and  _420
REMARK  154  A    between atoms: _420  and  _421
REMARK                            x       y       z     vdW  Elec       q    Type
REMARK                         _______ _______ _______ _____ _____    ______ ____
ROOT
ATOM      1  CG  TYR A   1      40.186  71.059  13.025  0.00  0.00    -0.020 A 
ATOM      2  CD2 TYR A   1      39.187  71.303  13.943  0.00  0.00    -0.001 A 
ATOM      3  CE2 TYR A   1      37.867  71.448  13.556  0.00  0.00    +0.036 A 
ATOM      4  CZ  TYR A   1      37.538  71.320  12.216  0.00  0.00    +0.134 A 
ATOM      5  CE1 TYR A   1      38.522  71.064  11.294  0.00  0.00    +0.036 A 
ATOM      6  CD1 TYR A   1      39.828  70.940  11.692  0.00  0.00    -0.001 A 
ENDROOT
BRANCH   4   7
ATOM      7  OH  TYR A   1      36.255  71.458  11.777  0.00  0.00    -0.506 OA
ATOM      8  HH  TYR A   1      35.661  71.638  12.548  0.00  0.00    +0.292 HD
ENDBRANCH   4   7
BRANCH   1   9
ATOM      9  CB  TYR A   1      41.616  70.867  13.451  0.00  0.00    +0.051 C 
BRANCH   9  10
ATOM     10  CA  TYR A   1      42.151  71.833  14.494  0.00  0.00    +0.137 C 
BRANCH  10  11
ATOM     11  N   TYR A   1      42.670  73.048  13.840  0.00  0.00    -0.239 NA
ATOM     12  H   TYR A   1      42.648  73.123  12.803  0.00  0.00    +0.142 HD
ENDBRANCH  10  11
BRANCH  10  13
ATOM     13  C   TYR A   1      43.235  71.095  15.308  0.00  0.00    +0.224 C 
ATOM     14  O   TYR A   1      42.993  70.594  16.373  0.00  0.00    -0.287 OA
ENDBRANCH  10  13
ENDBRANCH   9  10
ENDBRANCH   1   9
TORSDOF 5
REMARK  Name = ../refined-set-2016/3d50/3d50_pocket.pdb
REMARK  154 active torsions:
REMARK  status: ('A' for Active; 'I' for Inactive)
REMARK    1  A    between atoms: _1  and  _3
REMARK    2  A    between atoms: _14  and  _17
REMARK    3  A    between atoms: _17  and  _18
REMARK    4  A    between atoms: _25  and  _26
REMARK    5  A    between atoms: _33  and  _34
REMARK    6  A    between atoms: _39  and  _41
REMARK    7  A    between atoms: _41  and  _42
REMARK    8  A    between atoms: _44  and  _46
REMARK    9  A    between atoms: _46  and  _47
REMARK   10  A    between atoms: _46  and  _49
REMARK   11  A    between atoms: _49  and  _50
REMARK   12  A    between atoms: _60  and  _62
REMARK   13  A    between atoms: _62  and  _63
REMARK   14  A    between atoms: _62  and  _65
REMARK   15  A    between atoms: _65  and  _66
REMARK   16  A    between atoms: _69  and  _71
REMARK   17  A    between atoms: _71  and  _72
REMARK   18  A    between atoms: _71  and  _74
REMARK   19  A    between atoms: _74  and  _75
REMARK   20  A    between atoms: _80  and  _81
REMARK   21  A    between atoms: _83  and  _85
REMARK   22  A    between atoms: _85  and  _86
REMARK   23  A    between atoms: _85  and  _88
REMARK   24  A    between atoms: _88  and  _89
REMARK   25  A    between atoms: _89  and  _90
REMARK   26  A    between atoms: _92  and  _94
REMARK   27  A    between atoms: _94  and  _95
REMARK   28  A    between atoms: _94  and  _97
REMARK   29  A    between atoms: _97  and  _98
REMARK   30  A    between atoms: _101  and  _103
REMARK   31  A    between atoms: _103  and  _104
REMARK   32  A    between atoms: _103  and  _106
REMARK   33  A    between atoms: _106  and  _107
REMARK   34  A    between atoms: _107  and  _109
REMARK   35  A    between atoms: _109  and  ZN_423
REMARK   36  A    between atoms: _111  and  _112
REMARK   37  A    between atoms: _117  and  _119
REMARK   38  A    between atoms: _119  and  _120
REMARK   39  A    between atoms: _119  and  _122
REMARK   40  A    between atoms: _122  and  _123
REMARK   41  A    between atoms: _129  and  _131
REMARK   42  A    between atoms: _131  and  _132
REMARK   43  A    between atoms: _131  and  _134
REMARK   44  A    between atoms: _134  and  _135
REMARK   45  A    between atoms: _135  and  _136
REMARK   46  A    between atoms: _136  and  _137
REMARK   47  A    between atoms: _146  and  _148
REMARK   48  A    between atoms: _148  and  _149
REMARK   49  A    between atoms: _148  and  _151
REMARK   50  A    between atoms: _151  and  _152
REMARK   51  A    between atoms: _157  and  _158
REMARK   52  A    between atoms: _160  and  _162
REMARK   53  A    between atoms: _162  and  _163
REMARK   54  A    between atoms: _162  and  _165
REMARK   55  A    between atoms: _165  and  _166
REMARK   56  A    between atoms: _168  and  _170
REMARK   57  A    between atoms: _170  and  _171
REMARK   58  A    between atoms: _170  and  _173
REMARK   59  A    between atoms: _173  and  _174
REMARK   60  A    between atoms: _179  and  _180
REMARK   61  A    between atoms: _182  and  _184
REMARK   62  A    between atoms: _184  and  _185
REMARK   63  A    between atoms: _184  and  _187
REMARK   64  A    between atoms: _187  and  _188
REMARK   65  A    between atoms: _191  and  _193
REMARK   66  A    between atoms: _193  and  _194
REMARK   67  A    between atoms: _193  and  _196
REMARK   68  A    between atoms: _196  and  _197
REMARK   69  A    between atoms: _197  and  _198
REMARK   70  A    between atoms: _198  and  _199
REMARK   71  A    between atoms: _208  and  _210
REMARK   72  A    between atoms: _210  and  _211
REMARK   73  A    between atoms: _210  and  _213
REMARK   74  A    between atoms: _213  and  _214
REMARK   75  A    between atoms: _217  and  _219
REMARK   76  A    between atoms: _219  and  _220
REMARK   77  A    between atoms: _219  and  _222
REMARK   78  A    between atoms: _222  and  _223
REMARK   79  A    between atoms: _226  and  _228
REMARK   80  A    between atoms: _228  and  _229
REMARK   81  A    between atoms: _228  and  _231
REMARK   82  A    between atoms: _231  and  _232
REMARK   83  A    between atoms: _238  and  _240
REMARK   84  A    between atoms: _240  and  _241
REMARK   85  A    between atoms: _240  and  _243
REMARK   86  A    between atoms: _243  and  _244
REMARK   87  A    between atoms: _249  and  _250
REMARK   88  A    between atoms: _252  and  _254
REMARK   89  A    between atoms: _254  and  _255
REMARK   90  A    between atoms: _254  and  _257
REMARK   91  A    between atoms: _257  and  _258
REMARK   92  A    between atoms: _261  and  _263
REMARK   93  A    between atoms: _263  and  _264
REMARK   94  A    between atoms: _263  and  _266
REMARK   95  A    between atoms: _266  and  _267
REMARK   96  A    between atoms: _267  and  _268
REMARK   97  A    between atoms: _268  and  _269
REMARK   98  A    between atoms: _278  and  _280
REMARK   99  A    between atoms: _280  and  _281
REMARK  100  A    between atoms: _280  and  _283
REMARK  101  A    between atoms: _283  and  _284
REMARK  102  A    between atoms: _294  and  _296
REMARK  103  A    between atoms: _296  and  _297
REMARK  104  A    between atoms: _296  and  _299
REMARK  105  A    between atoms: _299  and  _300
REMARK  106  A    between atoms: _305  and  _307
REMARK  107  A    between atoms: _307  and  _308
REMARK  108  A    between atoms: _307  and  _310
REMARK  109  A    between atoms: _310  and  _311
REMARK  110  A    between atoms: _315  and  ZN_423
REMARK  111  A    between atoms: _316  and  _318
REMARK  112  A    between atoms: _318  and  _319
REMARK  113  A    between atoms: _318  and  _321
REMARK  114  A    between atoms: _321  and  _322
REMARK  115  A    between atoms: _325  and  _327
REMARK  116  A    between atoms: _327  and  _328
REMARK  117  A    between atoms: _330  and  _332
REMARK  118  A    between atoms: _332  and  _333
REMARK  119  A    between atoms: _332  and  _335
REMARK  120  A    between atoms: _335  and  _336
REMARK  121  A    between atoms: _339  and  _341
REMARK  122  A    between atoms: _341  and  _342
REMARK  123  A    between atoms: _341  and  _344
REMARK  124  A    between atoms: _344  and  _345
REMARK  125  A    between atoms: _348  and  _350
REMARK  126  A    between atoms: _350  and  _351
REMARK  127  A    between atoms: _354  and  _356
REMARK  128  A    between atoms: _356  and  _357
REMARK  129  A    between atoms: _356  and  _359
REMARK  130  A    between atoms: _359  and  _360
REMARK  131  A    between atoms: _365  and  _366
REMARK  132  A    between atoms: _368  and  _370
REMARK  133  A    between atoms: _370  and  _371
REMARK  134  A    between atoms: _370  and  _373
REMARK  135  A    between atoms: _373  and  _374
REMARK  136  A    between atoms: _377  and  _379
REMARK  137  A    between atoms: _379  and  _380
REMARK  138  A    between atoms: _379  and  _382
REMARK  139  A    between atoms: _382  and  _383
REMARK  140  A    between atoms: _383  and  _384
REMARK  141  A    between atoms: _387  and  _389
REMARK  142  A    between atoms: _389  and  _390
REMARK  143  A    between atoms: _389  and  _392
REMARK  144  A    between atoms: _392  and  _393
REMARK  145  A    between atoms: _393  and  _394
REMARK  146  A    between atoms: _394  and  _395
REMARK  147  A    between atoms: _404  and  _406
REMARK  148  A    between atoms: _406  and  _407
REMARK  149  A    between atoms: _409  and  _411
REMARK  150  A    between atoms: _411  and  _412
REMARK  151  A    between atoms: _411  and  _414
REMARK  152  A    between atoms: _414  and  _415
REMARK  153  A    between atoms: _418  and  _420
REMARK  154  A    between atoms: _420  and  _421
REMARK                            x       y       z     vdW  Elec       q    Type
REMARK                         _______ _______ _______ _____ _____    ______ ____
ROOT
ATOM      1  CA  MET A   1      39.960  59.669   4.694  0.00  0.00    +0.134 C 
ENDROOT
BRANCH   1   2
ATOM      2  N   MET A   1      41.076  60.585   5.040  0.00  0.00    -0.239 NA
ATOM      3  H   MET A   1      40.869  61.511   5.466  0.00  0.00    +0.142 HD
ENDBRANCH   1   2
BRANCH   1   4
ATOM      4  C   MET A   1      39.376  60.345   3.452  0.00  0.00    +0.224 C 
ATOM      5  O   MET A   1      38.605  61.305   3.538  0.00  0.00    -0.287 OA
ENDBRANCH   1   4
BRANCH   1   6
ATOM      6  CB  MET A   1      38.927  59.600   5.850  0.00  0.00    +0.037 C 
BRANCH   6   7
ATOM      7  CG  MET A   1      37.664  58.788   5.463  0.00  0.00    +0.059 C 
BRANCH   7   8
ATOM      8  SD  MET A   1      36.483  58.841   6.887  0.00  0.00    -0.139 S 
ATOM      9  CE  MET A   1      37.538  58.082   8.116  0.00  0.00    +0.069 C 
ENDBRANCH   7   8
ENDBRANCH   6   7
ENDBRANCH   1   6
TORSDOF 5
REMARK  Name = ../refined-set-2016/3d50/3d50_pocket.pdb
REMARK  154 active torsions:
REMARK  status: ('A' for Active; 'I' for Inactive)
REMARK    1  A    between atoms: _1  and  _3
REMARK    2  A    between atoms: _14  and  _17
REMARK    3  A    between atoms: _17  and  _18
REMARK    4  A    between atoms: _25  and  _26
REMARK    5  A    between atoms: _33  and  _34
REMARK    6  A    between atoms: _39  and  _41
REMARK    7  A    between atoms: _41  and  _42
REMARK    8  A    between atoms: _44  and  _46
REMARK    9  A    between atoms: _46  and  _47
REMARK   10  A    between atoms: _46  and  _49
REMARK   11  A    between atoms: _49  and  _50
REMARK   12  A    between atoms: _60  and  _62
REMARK   13  A    between atoms: _62  and  _63
REMARK   14  A    between atoms: _62  and  _65
REMARK   15  A    between atoms: _65  and  _66
REMARK   16  A    between atoms: _69  and  _71
REMARK   17  A    between atoms: _71  and  _72
REMARK   18  A    between atoms: _71  and  _74
REMARK   19  A    between atoms: _74  and  _75
REMARK   20  A    between atoms: _80  and  _81
REMARK   21  A    between atoms: _83  and  _85
REMARK   22  A    between atoms: _85  and  _86
REMARK   23  A    between atoms: _85  and  _88
REMARK   24  A    between atoms: _88  and  _89
REMARK   25  A    between atoms: _89  and  _90
REMARK   26  A    between atoms: _92  and  _94
REMARK   27  A    between atoms: _94  and  _95
REMARK   28  A    between atoms: _94  and  _97
REMARK   29  A    between atoms: _97  and  _98
REMARK   30  A    between atoms: _101  and  _103
REMARK   31  A    between atoms: _103  and  _104
REMARK   32  A    between atoms: _103  and  _106
REMARK   33  A    between atoms: _106  and  _107
REMARK   34  A    between atoms: _107  and  _109
REMARK   35  A    between atoms: _109  and  ZN_423
REMARK   36  A    between atoms: _111  and  _112
REMARK   37  A    between atoms: _117  and  _119
REMARK   38  A    between atoms: _119  and  _120
REMARK   39  A    between atoms: _119  and  _122
REMARK   40  A    between atoms: _122  and  _123
REMARK   41  A    between atoms: _129  and  _131
REMARK   42  A    between atoms: _131  and  _132
REMARK   43  A    between atoms: _131  and  _134
REMARK   44  A    between atoms: _134  and  _135
REMARK   45  A    between atoms: _135  and  _136
REMARK   46  A    between atoms: _136  and  _137
REMARK   47  A    between atoms: _146  and  _148
REMARK   48  A    between atoms: _148  and  _149
REMARK   49  A    between atoms: _148  and  _151
REMARK   50  A    between atoms: _151  and  _152
REMARK   51  A    between atoms: _157  and  _158
REMARK   52  A    between atoms: _160  and  _162
REMARK   53  A    between atoms: _162  and  _163
REMARK   54  A    between atoms: _162  and  _165
REMARK   55  A    between atoms: _165  and  _166
REMARK   56  A    between atoms: _168  and  _170
REMARK   57  A    between atoms: _170  and  _171
REMARK   58  A    between atoms: _170  and  _173
REMARK   59  A    between atoms: _173  and  _174
REMARK   60  A    between atoms: _179  and  _180
REMARK   61  A    between atoms: _182  and  _184
REMARK   62  A    between atoms: _184  and  _185
REMARK   63  A    between atoms: _184  and  _187
REMARK   64  A    between atoms: _187  and  _188
REMARK   65  A    between atoms: _191  and  _193
REMARK   66  A    between atoms: _193  and  _194
REMARK   67  A    between atoms: _193  and  _196
REMARK   68  A    between atoms: _196  and  _197
REMARK   69  A    between atoms: _197  and  _198
REMARK   70  A    between atoms: _198  and  _199
REMARK   71  A    between atoms: _208  and  _210
REMARK   72  A    between atoms: _210  and  _211
REMARK   73  A    between atoms: _210  and  _213
REMARK   74  A    between atoms: _213  and  _214
REMARK   75  A    between atoms: _217  and  _219
REMARK   76  A    between atoms: _219  and  _220
REMARK   77  A    between atoms: _219  and  _222
REMARK   78  A    between atoms: _222  and  _223
REMARK   79  A    between atoms: _226  and  _228
REMARK   80  A    between atoms: _228  and  _229
REMARK   81  A    between atoms: _228  and  _231
REMARK   82  A    between atoms: _231  and  _232
REMARK   83  A    between atoms: _238  and  _240
REMARK   84  A    between atoms: _240  and  _241
REMARK   85  A    between atoms: _240  and  _243
REMARK   86  A    between atoms: _243  and  _244
REMARK   87  A    between atoms: _249  and  _250
REMARK   88  A    between atoms: _252  and  _254
REMARK   89  A    between atoms: _254  and  _255
REMARK   90  A    between atoms: _254  and  _257
REMARK   91  A    between atoms: _257  and  _258
REMARK   92  A    between atoms: _261  and  _263
REMARK   93  A    between atoms: _263  and  _264
REMARK   94  A    between atoms: _263  and  _266
REMARK   95  A    between atoms: _266  and  _267
REMARK   96  A    between atoms: _267  and  _268
REMARK   97  A    between atoms: _268  and  _269
REMARK   98  A    between atoms: _278  and  _280
REMARK   99  A    between atoms: _280  and  _281
REMARK  100  A    between atoms: _280  and  _283
REMARK  101  A    between atoms: _283  and  _284
REMARK  102  A    between atoms: _294  and  _296
REMARK  103  A    between atoms: _296  and  _297
REMARK  104  A    between atoms: _296  and  _299
REMARK  105  A    between atoms: _299  and  _300
REMARK  106  A    between atoms: _305  and  _307
REMARK  107  A    between atoms: _307  and  _308
REMARK  108  A    between atoms: _307  and  _310
REMARK  109  A    between atoms: _310  and  _311
REMARK  110  A    between atoms: _315  and  ZN_423
REMARK  111  A    between atoms: _316  and  _318
REMARK  112  A    between atoms: _318  and  _319
REMARK  113  A    between atoms: _318  and  _321
REMARK  114  A    between atoms: _321  and  _322
REMARK  115  A    between atoms: _325  and  _327
REMARK  116  A    between atoms: _327  and  _328
REMARK  117  A    between atoms: _330  and  _332
REMARK  118  A    between atoms: _332  and  _333
REMARK  119  A    between atoms: _332  and  _335
REMARK  120  A    between atoms: _335  and  _336
REMARK  121  A    between atoms: _339  and  _341
REMARK  122  A    between atoms: _341  and  _342
REMARK  123  A    between atoms: _341  and  _344
REMARK  124  A    between atoms: _344  and  _345
REMARK  125  A    between atoms: _348  and  _350
REMARK  126  A    between atoms: _350  and  _351
REMARK  127  A    between atoms: _354  and  _356
REMARK  128  A    between atoms: _356  and  _357
REMARK  129  A    between atoms: _356  and  _359
REMARK  130  A    between atoms: _359  and  _360
REMARK  131  A    between atoms: _365  and  _366
REMARK  132  A    between atoms: _368  and  _370
REMARK  133  A    between atoms: _370  and  _371
REMARK  134  A    between atoms: _370  and  _373
REMARK  135  A    between atoms: _373  and  _374
REMARK  136  A    between atoms: _377  and  _379
REMARK  137  A    between atoms: _379  and  _380
REMARK  138  A    between atoms: _379  and  _382
REMARK  139  A    between atoms: _382  and  _383
REMARK  140  A    between atoms: _383  and  _384
REMARK  141  A    between atoms: _387  and  _389
REMARK  142  A    between atoms: _389  and  _390
REMARK  143  A    between atoms: _389  and  _392
REMARK  144  A    between atoms: _392  and  _393
REMARK  145  A    between atoms: _393  and  _394
REMARK  146  A    between atoms: _394  and  _395
REMARK  147  A    between atoms: _404  and  _406
REMARK  148  A    between atoms: _406  and  _407
REMARK  149  A    between atoms: _409  and  _411
REMARK  150  A    between atoms: _411  and  _412
REMARK  151  A    between atoms: _411  and  _414
REMARK  152  A    between atoms: _414  and  _415
REMARK  153  A    between atoms: _418  and  _420
REMARK  154  A    between atoms: _420  and  _421
REMARK                            x       y       z     vdW  Elec       q    Type
REMARK                         _______ _______ _______ _____ _____    ______ ____
ROOT
ATOM      1  NE  ARG A   1      28.748  61.553   5.576  0.00  0.00    -0.265 N 
ATOM      2  CZ  ARG A   1      27.932  62.398   6.230  0.00  0.00    +0.342 C 
ATOM      3  NH2 ARG A   1      28.430  63.351   7.046  0.00  0.00    -0.292 N 
ATOM      4 HH21 ARG A   1      27.786  63.997   7.545  0.00  0.00    +0.255 HD
ATOM      5 HH22 ARG A   1      29.458  63.439   7.176  0.00  0.00    +0.255 HD
ATOM      6  NH1 ARG A   1      26.599  62.244   6.138  0.00  0.00    -0.292 N 
ATOM      7 HH11 ARG A   1      25.964  62.895   6.642  0.00  0.00    +0.255 HD
ATOM      8 HH12 ARG A   1      26.203  61.473   5.563  0.00  0.00    +0.255 HD
ATOM      9  HE  ARG A   1      29.763  61.596   5.797  0.00  0.00    +0.259 HD
ENDROOT
BRANCH   1  10
ATOM     10  CD  ARG A   1      28.308  60.568   4.567  0.00  0.00    +0.174 C 
BRANCH  10  11
ATOM     11  CG  ARG A   1      28.110  59.138   5.033  0.00  0.00    +0.045 C 
BRANCH  11  12
ATOM     12  CB  ARG A   1      27.956  58.346   3.753  0.00  0.00    +0.029 C 
BRANCH  12  13
ATOM     13  CA  ARG A   1      27.303  56.963   3.991  0.00  0.00    +0.133 C 
BRANCH  13  14
ATOM     14  N   ARG A   1      28.263  56.048   4.639  0.00  0.00    -0.239 NA
ATOM     15  H   ARG A   1      29.286  56.152   4.482  0.00  0.00    +0.142 HD
ENDBRANCH  13  14
BRANCH  13  16
ATOM     16  C   ARG A   1      26.761  56.392   2.710  0.00  0.00    +0.224 C 
ATOM     17  O   ARG A   1      27.319  56.611   1.622  0.00  0.00    -0.287 OA
ENDBRANCH  13  16
ENDBRANCH  12  13
ENDBRANCH  11  12
ENDBRANCH  10  11
ENDBRANCH   1  10
TORSDOF 6
REMARK  Name = ../refined-set-2016/3d50/3d50_pocket.pdb
REMARK  154 active torsions:
REMARK  status: ('A' for Active; 'I' for Inactive)
REMARK    1  A    between atoms: _1  and  _3
REMARK    2  A    between atoms: _14  and  _17
REMARK    3  A    between atoms: _17  and  _18
REMARK    4  A    between atoms: _25  and  _26
REMARK    5  A    between atoms: _33  and  _34
REMARK    6  A    between atoms: _39  and  _41
REMARK    7  A    between atoms: _41  and  _42
REMARK    8  A    between atoms: _44  and  _46
REMARK    9  A    between atoms: _46  and  _47
REMARK   10  A    between atoms: _46  and  _49
REMARK   11  A    between atoms: _49  and  _50
REMARK   12  A    between atoms: _60  and  _62
REMARK   13  A    between atoms: _62  and  _63
REMARK   14  A    between atoms: _62  and  _65
REMARK   15  A    between atoms: _65  and  _66
REMARK   16  A    between atoms: _69  and  _71
REMARK   17  A    between atoms: _71  and  _72
REMARK   18  A    between atoms: _71  and  _74
REMARK   19  A    between atoms: _74  and  _75
REMARK   20  A    between atoms: _80  and  _81
REMARK   21  A    between atoms: _83  and  _85
REMARK   22  A    between atoms: _85  and  _86
REMARK   23  A    between atoms: _85  and  _88
REMARK   24  A    between atoms: _88  and  _89
REMARK   25  A    between atoms: _89  and  _90
REMARK   26  A    between atoms: _92  and  _94
REMARK   27  A    between atoms: _94  and  _95
REMARK   28  A    between atoms: _94  and  _97
REMARK   29  A    between atoms: _97  and  _98
REMARK   30  A    between atoms: _101  and  _103
REMARK   31  A    between atoms: _103  and  _104
REMARK   32  A    between atoms: _103  and  _106
REMARK   33  A    between atoms: _106  and  _107
REMARK   34  A    between atoms: _107  and  _109
REMARK   35  A    between atoms: _109  and  ZN_423
REMARK   36  A    between atoms: _111  and  _112
REMARK   37  A    between atoms: _117  and  _119
REMARK   38  A    between atoms: _119  and  _120
REMARK   39  A    between atoms: _119  and  _122
REMARK   40  A    between atoms: _122  and  _123
REMARK   41  A    between atoms: _129  and  _131
REMARK   42  A    between atoms: _131  and  _132
REMARK   43  A    between atoms: _131  and  _134
REMARK   44  A    between atoms: _134  and  _135
REMARK   45  A    between atoms: _135  and  _136
REMARK   46  A    between atoms: _136  and  _137
REMARK   47  A    between atoms: _146  and  _148
REMARK   48  A    between atoms: _148  and  _149
REMARK   49  A    between atoms: _148  and  _151
REMARK   50  A    between atoms: _151  and  _152
REMARK   51  A    between atoms: _157  and  _158
REMARK   52  A    between atoms: _160  and  _162
REMARK   53  A    between atoms: _162  and  _163
REMARK   54  A    between atoms: _162  and  _165
REMARK   55  A    between atoms: _165  and  _166
REMARK   56  A    between atoms: _168  and  _170
REMARK   57  A    between atoms: _170  and  _171
REMARK   58  A    between atoms: _170  and  _173
REMARK   59  A    between atoms: _173  and  _174
REMARK   60  A    between atoms: _179  and  _180
REMARK   61  A    between atoms: _182  and  _184
REMARK   62  A    between atoms: _184  and  _185
REMARK   63  A    between atoms: _184  and  _187
REMARK   64  A    between atoms: _187  and  _188
REMARK   65  A    between atoms: _191  and  _193
REMARK   66  A    between atoms: _193  and  _194
REMARK   67  A    between atoms: _193  and  _196
REMARK   68  A    between atoms: _196  and  _197
REMARK   69  A    between atoms: _197  and  _198
REMARK   70  A    between atoms: _198  and  _199
REMARK   71  A    between atoms: _208  and  _210
REMARK   72  A    between atoms: _210  and  _211
REMARK   73  A    between atoms: _210  and  _213
REMARK   74  A    between atoms: _213  and  _214
REMARK   75  A    between atoms: _217  and  _219
REMARK   76  A    between atoms: _219  and  _220
REMARK   77  A    between atoms: _219  and  _222
REMARK   78  A    between atoms: _222  and  _223
REMARK   79  A    between atoms: _226  and  _228
REMARK   80  A    between atoms: _228  and  _229
REMARK   81  A    between atoms: _228  and  _231
REMARK   82  A    between atoms: _231  and  _232
REMARK   83  A    between atoms: _238  and  _240
REMARK   84  A    between atoms: _240  and  _241
REMARK   85  A    between atoms: _240  and  _243
REMARK   86  A    between atoms: _243  and  _244
REMARK   87  A    between atoms: _249  and  _250
REMARK   88  A    between atoms: _252  and  _254
REMARK   89  A    between atoms: _254  and  _255
REMARK   90  A    between atoms: _254  and  _257
REMARK   91  A    between atoms: _257  and  _258
REMARK   92  A    between atoms: _261  and  _263
REMARK   93  A    between atoms: _263  and  _264
REMARK   94  A    between atoms: _263  and  _266
REMARK   95  A    between atoms: _266  and  _267
REMARK   96  A    between atoms: _267  and  _268
REMARK   97  A    between atoms: _268  and  _269
REMARK   98  A    between atoms: _278  and  _280
REMARK   99  A    between atoms: _280  and  _281
REMARK  100  A    between atoms: _280  and  _283
REMARK  101  A    between atoms: _283  and  _284
REMARK  102  A    between atoms: _294  and  _296
REMARK  103  A    between atoms: _296  and  _297
REMARK  104  A    between atoms: _296  and  _299
REMARK  105  A    between atoms: _299  and  _300
REMARK  106  A    between atoms: _305  and  _307
REMARK  107  A    between atoms: _307  and  _308
REMARK  108  A    between atoms: _307  and  _310
REMARK  109  A    between atoms: _310  and  _311
REMARK  110  A    between atoms: _315  and  ZN_423
REMARK  111  A    between atoms: _316  and  _318
REMARK  112  A    between atoms: _318  and  _319
REMARK  113  A    between atoms: _318  and  _321
REMARK  114  A    between atoms: _321  and  _322
REMARK  115  A    between atoms: _325  and  _327
REMARK  116  A    between atoms: _327  and  _328
REMARK  117  A    between atoms: _330  and  _332
REMARK  118  A    between atoms: _332  and  _333
REMARK  119  A    between atoms: _332  and  _335
REMARK  120  A    between atoms: _335  and  _336
REMARK  121  A    between atoms: _339  and  _341
REMARK  122  A    between atoms: _341  and  _342
REMARK  123  A    between atoms: _341  and  _344
REMARK  124  A    between atoms: _344  and  _345
REMARK  125  A    between atoms: _348  and  _350
REMARK  126  A    between atoms: _350  and  _351
REMARK  127  A    between atoms: _354  and  _356
REMARK  128  A    between atoms: _356  and  _357
REMARK  129  A    between atoms: _356  and  _359
REMARK  130  A    between atoms: _359  and  _360
REMARK  131  A    between atoms: _365  and  _366
REMARK  132  A    between atoms: _368  and  _370
REMARK  133  A    between atoms: _370  and  _371
REMARK  134  A    between atoms: _370  and  _373
REMARK  135  A    between atoms: _373  and  _374
REMARK  136  A    between atoms: _377  and  _379
REMARK  137  A    between atoms: _379  and  _380
REMARK  138  A    between atoms: _379  and  _382
REMARK  139  A    between atoms: _382  and  _383
REMARK  140  A    between atoms: _383  and  _384
REMARK  141  A    between atoms: _387  and  _389
REMARK  142  A    between atoms: _389  and  _390
REMARK  143  A    between atoms: _389  and  _392
REMARK  144  A    between atoms: _392  and  _393
REMARK  145  A    between atoms: _393  and  _394
REMARK  146  A    between atoms: _394  and  _395
REMARK  147  A    between atoms: _404  and  _406
REMARK  148  A    between atoms: _406  and  _407
REMARK  149  A    between atoms: _409  and  _411
REMARK  150  A    between atoms: _411  and  _412
REMARK  151  A    between atoms: _411  and  _414
REMARK  152  A    between atoms: _414  and  _415
REMARK  153  A    between atoms: _418  and  _420
REMARK  154  A    between atoms: _420  and  _421
REMARK                            x       y       z     vdW  Elec       q    Type
REMARK                         _______ _______ _______ _____ _____    ______ ____
ROOT
ATOM      1  C   SER A   2      26.172  57.477  12.062  0.00  0.00    +0.243 C 
ATOM      2  O   SER A   2      25.800  56.330  12.412  0.00  0.00    -0.273 OA
ATOM      3  N   TYR A   3      27.421  57.907  12.178  0.00  0.00    -0.297 N 
ATOM      4  H   TYR A   3      27.707  58.805  11.737  0.00  0.00    +0.150 HD
ENDROOT
BRANCH   3   5
ATOM      5  CA  TYR A   3      28.386  57.122  12.921  0.00  0.00    +0.153 C 
BRANCH   5   6
ATOM      6  C   TYR A   3      28.460  57.575  14.374  0.00  0.00    +0.241 C 
ATOM      7  O   TYR A   3      29.285  57.078  15.114  0.00  0.00    -0.273 OA
ATOM      8  N   ASP A   4      27.616  58.521  14.783  0.00  0.00    -0.298 N 
ATOM      9  H   ASP A   4      26.905  58.908  14.130  0.00  0.00    +0.150 HD
BRANCH   8  10
ATOM     10  CA  ASP A   4      27.699  59.008  16.152  0.00  0.00    +0.148 C 
BRANCH  10  11
ATOM     11  C   ASP A   4      27.151  57.956  17.113  0.00  0.00    +0.227 C 
ATOM     12  O   ASP A   4      26.688  56.937  16.677  0.00  0.00    -0.286 OA
ENDBRANCH  10  11
BRANCH  10  13
ATOM     13  CB  ASP A   4      27.073  60.404  16.363  0.00  0.00    +0.142 C 
BRANCH  13  14
ATOM     14  CG  ASP A   4      25.571  60.419  16.166  0.00  0.00    +0.367 C 
ATOM     15  OD2 ASP A   4      25.007  61.530  16.167  0.00  0.00    -0.246 OA
ATOM     16  OD1 ASP A   4      25.000  59.340  16.011  0.00  0.00    -0.246 OA
ENDBRANCH  13  14
ENDBRANCH  10  13
ENDBRANCH   8  10
ENDBRANCH   5   6
BRANCH   5  17
ATOM     17  CB  TYR A   3      29.795  57.191  12.326  0.00  0.00    +0.055 C 
BRANCH  17  18
ATOM     18  CG  TYR A   3      30.299  58.591  12.201  0.00  0.00    -0.020 A 
ATOM     19  CD2 TYR A   3      30.615  59.348  13.314  0.00  0.00    -0.001 A 
ATOM     20  CE2 TYR A   3      31.044  60.645  13.179  0.00  0.00    +0.036 A 
ATOM     21  CZ  TYR A   3      31.156  61.193  11.924  0.00  0.00    +0.134 A 
ATOM     22  CE1 TYR A   3      30.842  60.459  10.825  0.00  0.00    +0.036 A 
ATOM     23  CD1 TYR A   3      30.405  59.182  10.961  0.00  0.00    -0.001 A 
BRANCH  21  24
ATOM     24  OH  TYR A   3      31.572  62.470  11.715  0.00  0.00    -0.506 OA
ATOM     25  HH  TYR A   3      31.769  62.898  12.586  0.00  0.00    +0.292 HD
ENDBRANCH  21  24
ENDBRANCH  17  18
ENDBRANCH   5  17
ENDBRANCH   3   5
BRANCH   1  26
ATOM     26  CA  SER A   2      25.177  58.414  11.463  0.00  0.00    +0.178 C 
BRANCH  26  28
ATOM     27  C   TYR A   1      23.293  57.962   9.989  0.00  0.00    +0.239 C 
ATOM     28  N   SER A   2      23.982  57.659  11.092  0.00  0.00    -0.295 N 
ATOM     29  H   SER A   2      23.664  56.874  11.696  0.00  0.00    +0.150 HD
ATOM     30  O   TYR A   1      23.669  58.778   9.155  0.00  0.00    -0.274 OA
BRANCH  27  31
ATOM     31  CA  TYR A   1      21.945  57.290   9.804  0.00  0.00    +0.149 C 
BRANCH  31  32
ATOM     32  N   TYR A   1      21.876  55.976  10.441  0.00  0.00    -0.238 NA
ATOM     33  H   TYR A   1      21.312  55.863  11.308  0.00  0.00    +0.142 HD
ENDBRANCH  31  32
BRANCH  31  34
ATOM     34  CB  TYR A   1      20.795  58.119  10.362  0.00  0.00    +0.053 C 
BRANCH  34  35
ATOM     35  CG  TYR A   1      20.908  59.620  10.219  0.00  0.00    -0.020 A 
ATOM     36  CD2 TYR A   1      21.346  60.382  11.298  0.00  0.00    -0.001 A 
ATOM     37  CE2 TYR A   1      21.411  61.755  11.222  0.00  0.00    +0.036 A 
ATOM     38  CZ  TYR A   1      20.980  62.350  10.039  0.00  0.00    +0.134 A 
ATOM     39  CE1 TYR A   1      20.535  61.612   8.941  0.00  0.00    +0.036 A 
ATOM     40  CD1 TYR A   1      20.484  60.251   9.040  0.00  0.00    -0.001 A 
BRANCH  38  41
ATOM     41  OH  TYR A   1      21.031  63.691   9.901  0.00  0.00    -0.506 OA
ATOM     42  HH  TYR A   1      20.689  63.943   9.007  0.00  0.00    +0.292 HD
ENDBRANCH  38  41
ENDBRANCH  34  35
ENDBRANCH  31  34
ENDBRANCH  27  31
ENDBRANCH  26  28
BRANCH  26  43
ATOM     43  CB  SER A   2      24.811  59.535  12.509  0.00  0.00    +0.166 C 
BRANCH  43  44
ATOM     44  OG  SER A   2      26.001  60.178  12.870  0.00  0.00    -0.380 OA
ATOM     45  H   SER A   2      26.416  60.577  12.065  0.00  0.00    +0.211 HD
ENDBRANCH  43  44
ENDBRANCH  26  43
ENDBRANCH   1  26
TORSDOF 18
REMARK  Name = ../refined-set-2016/3d50/3d50_pocket.pdb
REMARK  154 active torsions:
REMARK  status: ('A' for Active; 'I' for Inactive)
REMARK    1  A    between atoms: _1  and  _3
REMARK    2  A    between atoms: _14  and  _17
REMARK    3  A    between atoms: _17  and  _18
REMARK    4  A    between atoms: _25  and  _26
REMARK    5  A    between atoms: _33  and  _34
REMARK    6  A    between atoms: _39  and  _41
REMARK    7  A    between atoms: _41  and  _42
REMARK    8  A    between atoms: _44  and  _46
REMARK    9  A    between atoms: _46  and  _47
REMARK   10  A    between atoms: _46  and  _49
REMARK   11  A    between atoms: _49  and  _50
REMARK   12  A    between atoms: _60  and  _62
REMARK   13  A    between atoms: _62  and  _63
REMARK   14  A    between atoms: _62  and  _65
REMARK   15  A    between atoms: _65  and  _66
REMARK   16  A    between atoms: _69  and  _71
REMARK   17  A    between atoms: _71  and  _72
REMARK   18  A    between atoms: _71  and  _74
REMARK   19  A    between atoms: _74  and  _75
REMARK   20  A    between atoms: _80  and  _81
REMARK   21  A    between atoms: _83  and  _85
REMARK   22  A    between atoms: _85  and  _86
REMARK   23  A    between atoms: _85  and  _88
REMARK   24  A    between atoms: _88  and  _89
REMARK   25  A    between atoms: _89  and  _90
REMARK   26  A    between atoms: _92  and  _94
REMARK   27  A    between atoms: _94  and  _95
REMARK   28  A    between atoms: _94  and  _97
REMARK   29  A    between atoms: _97  and  _98
REMARK   30  A    between atoms: _101  and  _103
REMARK   31  A    between atoms: _103  and  _104
REMARK   32  A    between atoms: _103  and  _106
REMARK   33  A    between atoms: _106  and  _107
REMARK   34  A    between atoms: _107  and  _109
REMARK   35  A    between atoms: _109  and  ZN_423
REMARK   36  A    between atoms: _111  and  _112
REMARK   37  A    between atoms: _117  and  _119
REMARK   38  A    between atoms: _119  and  _120
REMARK   39  A    between atoms: _119  and  _122
REMARK   40  A    between atoms: _122  and  _123
REMARK   41  A    between atoms: _129  and  _131
REMARK   42  A    between atoms: _131  and  _132
REMARK   43  A    between atoms: _131  and  _134
REMARK   44  A    between atoms: _134  and  _135
REMARK   45  A    between atoms: _135  and  _136
REMARK   46  A    between atoms: _136  and  _137
REMARK   47  A    between atoms: _146  and  _148
REMARK   48  A    between atoms: _148  and  _149
REMARK   49  A    between atoms: _148  and  _151
REMARK   50  A    between atoms: _151  and  _152
REMARK   51  A    between atoms: _157  and  _158
REMARK   52  A    between atoms: _160  and  _162
REMARK   53  A    between atoms: _162  and  _163
REMARK   54  A    between atoms: _162  and  _165
REMARK   55  A    between atoms: _165  and  _166
REMARK   56  A    between atoms: _168  and  _170
REMARK   57  A    between atoms: _170  and  _171
REMARK   58  A    between atoms: _170  and  _173
REMARK   59  A    between atoms: _173  and  _174
REMARK   60  A    between atoms: _179  and  _180
REMARK   61  A    between atoms: _182  and  _184
REMARK   62  A    between atoms: _184  and  _185
REMARK   63  A    between atoms: _184  and  _187
REMARK   64  A    between atoms: _187  and  _188
REMARK   65  A    between atoms: _191  and  _193
REMARK   66  A    between atoms: _193  and  _194
REMARK   67  A    between atoms: _193  and  _196
REMARK   68  A    between atoms: _196  and  _197
REMARK   69  A    between atoms: _197  and  _198
REMARK   70  A    between atoms: _198  and  _199
REMARK   71  A    between atoms: _208  and  _210
REMARK   72  A    between atoms: _210  and  _211
REMARK   73  A    between atoms: _210  and  _213
REMARK   74  A    between atoms: _213  and  _214
REMARK   75  A    between atoms: _217  and  _219
REMARK   76  A    between atoms: _219  and  _220
REMARK   77  A    between atoms: _219  and  _222
REMARK   78  A    between atoms: _222  and  _223
REMARK   79  A    between atoms: _226  and  _228
REMARK   80  A    between atoms: _228  and  _229
REMARK   81  A    between atoms: _228  and  _231
REMARK   82  A    between atoms: _231  and  _232
REMARK   83  A    between atoms: _238  and  _240
REMARK   84  A    between atoms: _240  and  _241
REMARK   85  A    between atoms: _240  and  _243
REMARK   86  A    between atoms: _243  and  _244
REMARK   87  A    between atoms: _249  and  _250
REMARK   88  A    between atoms: _252  and  _254
REMARK   89  A    between atoms: _254  and  _255
REMARK   90  A    between atoms: _254  and  _257
REMARK   91  A    between atoms: _257  and  _258
REMARK   92  A    between atoms: _261  and  _263
REMARK   93  A    between atoms: _263  and  _264
REMARK   94  A    between atoms: _263  and  _266
REMARK   95  A    between atoms: _266  and  _267
REMARK   96  A    between atoms: _267  and  _268
REMARK   97  A    between atoms: _268  and  _269
REMARK   98  A    between atoms: _278  and  _280
REMARK   99  A    between atoms: _280  and  _281
REMARK  100  A    between atoms: _280  and  _283
REMARK  101  A    between atoms: _283  and  _284
REMARK  102  A    between atoms: _294  and  _296
REMARK  103  A    between atoms: _296  and  _297
REMARK  104  A    between atoms: _296  and  _299
REMARK  105  A    between atoms: _299  and  _300
REMARK  106  A    between atoms: _305  and  _307
REMARK  107  A    between atoms: _307  and  _308
REMARK  108  A    between atoms: _307  and  _310
REMARK  109  A    between atoms: _310  and  _311
REMARK  110  A    between atoms: _315  and  ZN_423
REMARK  111  A    between atoms: _316  and  _318
REMARK  112  A    between atoms: _318  and  _319
REMARK  113  A    between atoms: _318  and  _321
REMARK  114  A    between atoms: _321  and  _322
REMARK  115  A    between atoms: _325  and  _327
REMARK  116  A    between atoms: _327  and  _328
REMARK  117  A    between atoms: _330  and  _332
REMARK  118  A    between atoms: _332  and  _333
REMARK  119  A    between atoms: _332  and  _335
REMARK  120  A    between atoms: _335  and  _336
REMARK  121  A    between atoms: _339  and  _341
REMARK  122  A    between atoms: _341  and  _342
REMARK  123  A    between atoms: _341  and  _344
REMARK  124  A    between atoms: _344  and  _345
REMARK  125  A    between atoms: _348  and  _350
REMARK  126  A    between atoms: _350  and  _351
REMARK  127  A    between atoms: _354  and  _356
REMARK  128  A    between atoms: _356  and  _357
REMARK  129  A    between atoms: _356  and  _359
REMARK  130  A    between atoms: _359  and  _360
REMARK  131  A    between atoms: _365  and  _366
REMARK  132  A    between atoms: _368  and  _370
REMARK  133  A    between atoms: _370  and  _371
REMARK  134  A    between atoms: _370  and  _373
REMARK  135  A    between atoms: _373  and  _374
REMARK  136  A    between atoms: _377  and  _379
REMARK  137  A    between atoms: _379  and  _380
REMARK  138  A    between atoms: _379  and  _382
REMARK  139  A    between atoms: _382  and  _383
REMARK  140  A    between atoms: _383  and  _384
REMARK  141  A    between atoms: _387  and  _389
REMARK  142  A    between atoms: _389  and  _390
REMARK  143  A    between atoms: _389  and  _392
REMARK  144  A    between atoms: _392  and  _393
REMARK  145  A    between atoms: _393  and  _394
REMARK  146  A    between atoms: _394  and  _395
REMARK  147  A    between atoms: _404  and  _406
REMARK  148  A    between atoms: _406  and  _407
REMARK  149  A    between atoms: _409  and  _411
REMARK  150  A    between atoms: _411  and  _412
REMARK  151  A    between atoms: _411  and  _414
REMARK  152  A    between atoms: _414  and  _415
REMARK  153  A    between atoms: _418  and  _420
REMARK  154  A    between atoms: _420  and  _421
REMARK                            x       y       z     vdW  Elec       q    Type
REMARK                         _______ _______ _______ _____ _____    ______ ____
ROOT
ATOM      1  NE  ARG A   1      25.453  62.769  22.315  0.00  0.00    -0.265 N 
ATOM      2  HE  ARG A   1      26.191  62.037  22.277  0.00  0.00    +0.259 HD
ATOM      3  CZ  ARG A   1      25.049  63.305  21.177  0.00  0.00    +0.342 C 
ATOM      4  NH2 ARG A   1      24.127  64.246  21.191  0.00  0.00    -0.292 N 
ATOM      5 HH21 ARG A   1      23.721  64.563  22.095  0.00  0.00    +0.255 HD
ATOM      6 HH22 ARG A   1      23.805  64.672  20.298  0.00  0.00    +0.255 HD
ATOM      7  NH1 ARG A   1      25.542  62.892  20.035  0.00  0.00    -0.292 N 
ATOM      8 HH11 ARG A   1      26.257  62.137  20.020  0.00  0.00    +0.255 HD
ATOM      9 HH12 ARG A   1      25.218  63.319  19.144  0.00  0.00    +0.255 HD
ENDROOT
BRANCH   1  10
ATOM     10  CD  ARG A   1      24.928  63.142  23.613  0.00  0.00    +0.174 C 
BRANCH  10  11
ATOM     11  CG  ARG A   1      25.971  63.562  24.597  0.00  0.00    +0.045 C 
BRANCH  11  12
ATOM     12  CB  ARG A   1      25.423  63.618  25.998  0.00  0.00    +0.029 C 
BRANCH  12  13
ATOM     13  CA  ARG A   1      26.389  64.192  27.042  0.00  0.00    +0.133 C 
BRANCH  13  14
ATOM     14  N   ARG A   1      27.545  63.324  27.197  0.00  0.00    -0.239 NA
ATOM     15  H   ARG A   1      27.417  62.302  27.341  0.00  0.00    +0.142 HD
ENDBRANCH  13  14
BRANCH  13  16
ATOM     16  C   ARG A   1      25.623  64.521  28.328  0.00  0.00    +0.224 C 
ATOM     17  O   ARG A   1      24.433  64.699  28.276  0.00  0.00    -0.287 OA
ENDBRANCH  13  16
ENDBRANCH  12  13
ENDBRANCH  11  12
ENDBRANCH  10  11
ENDBRANCH   1  10
TORSDOF 6
REMARK  Name = ../refined-set-2016/3d50/3d50_pocket.pdb
REMARK  154 active torsions:
REMARK  status: ('A' for Active; 'I' for Inactive)
REMARK    1  A    between atoms: _1  and  _3
REMARK    2  A    between atoms: _14  and  _17
REMARK    3  A    between atoms: _17  and  _18
REMARK    4  A    between atoms: _25  and  _26
REMARK    5  A    between atoms: _33  and  _34
REMARK    6  A    between atoms: _39  and  _41
REMARK    7  A    between atoms: _41  and  _42
REMARK    8  A    between atoms: _44  and  _46
REMARK    9  A    between atoms: _46  and  _47
REMARK   10  A    between atoms: _46  and  _49
REMARK   11  A    between atoms: _49  and  _50
REMARK   12  A    between atoms: _60  and  _62
REMARK   13  A    between atoms: _62  and  _63
REMARK   14  A    between atoms: _62  and  _65
REMARK   15  A    between atoms: _65  and  _66
REMARK   16  A    between atoms: _69  and  _71
REMARK   17  A    between atoms: _71  and  _72
REMARK   18  A    between atoms: _71  and  _74
REMARK   19  A    between atoms: _74  and  _75
REMARK   20  A    between atoms: _80  and  _81
REMARK   21  A    between atoms: _83  and  _85
REMARK   22  A    between atoms: _85  and  _86
REMARK   23  A    between atoms: _85  and  _88
REMARK   24  A    between atoms: _88  and  _89
REMARK   25  A    between atoms: _89  and  _90
REMARK   26  A    between atoms: _92  and  _94
REMARK   27  A    between atoms: _94  and  _95
REMARK   28  A    between atoms: _94  and  _97
REMARK   29  A    between atoms: _97  and  _98
REMARK   30  A    between atoms: _101  and  _103
REMARK   31  A    between atoms: _103  and  _104
REMARK   32  A    between atoms: _103  and  _106
REMARK   33  A    between atoms: _106  and  _107
REMARK   34  A    between atoms: _107  and  _109
REMARK   35  A    between atoms: _109  and  ZN_423
REMARK   36  A    between atoms: _111  and  _112
REMARK   37  A    between atoms: _117  and  _119
REMARK   38  A    between atoms: _119  and  _120
REMARK   39  A    between atoms: _119  and  _122
REMARK   40  A    between atoms: _122  and  _123
REMARK   41  A    between atoms: _129  and  _131
REMARK   42  A    between atoms: _131  and  _132
REMARK   43  A    between atoms: _131  and  _134
REMARK   44  A    between atoms: _134  and  _135
REMARK   45  A    between atoms: _135  and  _136
REMARK   46  A    between atoms: _136  and  _137
REMARK   47  A    between atoms: _146  and  _148
REMARK   48  A    between atoms: _148  and  _149
REMARK   49  A    between atoms: _148  and  _151
REMARK   50  A    between atoms: _151  and  _152
REMARK   51  A    between atoms: _157  and  _158
REMARK   52  A    between atoms: _160  and  _162
REMARK   53  A    between atoms: _162  and  _163
REMARK   54  A    between atoms: _162  and  _165
REMARK   55  A    between atoms: _165  and  _166
REMARK   56  A    between atoms: _168  and  _170
REMARK   57  A    between atoms: _170  and  _171
REMARK   58  A    between atoms: _170  and  _173
REMARK   59  A    between atoms: _173  and  _174
REMARK   60  A    between atoms: _179  and  _180
REMARK   61  A    between atoms: _182  and  _184
REMARK   62  A    between atoms: _184  and  _185
REMARK   63  A    between atoms: _184  and  _187
REMARK   64  A    between atoms: _187  and  _188
REMARK   65  A    between atoms: _191  and  _193
REMARK   66  A    between atoms: _193  and  _194
REMARK   67  A    between atoms: _193  and  _196
REMARK   68  A    between atoms: _196  and  _197
REMARK   69  A    between atoms: _197  and  _198
REMARK   70  A    between atoms: _198  and  _199
REMARK   71  A    between atoms: _208  and  _210
REMARK   72  A    between atoms: _210  and  _211
REMARK   73  A    between atoms: _210  and  _213
REMARK   74  A    between atoms: _213  and  _214
REMARK   75  A    between atoms: _217  and  _219
REMARK   76  A    between atoms: _219  and  _220
REMARK   77  A    between atoms: _219  and  _222
REMARK   78  A    between atoms: _222  and  _223
REMARK   79  A    between atoms: _226  and  _228
REMARK   80  A    between atoms: _228  and  _229
REMARK   81  A    between atoms: _228  and  _231
REMARK   82  A    between atoms: _231  and  _232
REMARK   83  A    between atoms: _238  and  _240
REMARK   84  A    between atoms: _240  and  _241
REMARK   85  A    between atoms: _240  and  _243
REMARK   86  A    between atoms: _243  and  _244
REMARK   87  A    between atoms: _249  and  _250
REMARK   88  A    between atoms: _252  and  _254
REMARK   89  A    between atoms: _254  and  _255
REMARK   90  A    between atoms: _254  and  _257
REMARK   91  A    between atoms: _257  and  _258
REMARK   92  A    between atoms: _261  and  _263
REMARK   93  A    between atoms: _263  and  _264
REMARK   94  A    between atoms: _263  and  _266
REMARK   95  A    between atoms: _266  and  _267
REMARK   96  A    between atoms: _267  and  _268
REMARK   97  A    between atoms: _268  and  _269
REMARK   98  A    between atoms: _278  and  _280
REMARK   99  A    between atoms: _280  and  _281
REMARK  100  A    between atoms: _280  and  _283
REMARK  101  A    between atoms: _283  and  _284
REMARK  102  A    between atoms: _294  and  _296
REMARK  103  A    between atoms: _296  and  _297
REMARK  104  A    between atoms: _296  and  _299
REMARK  105  A    between atoms: _299  and  _300
REMARK  106  A    between atoms: _305  and  _307
REMARK  107  A    between atoms: _307  and  _308
REMARK  108  A    between atoms: _307  and  _310
REMARK  109  A    between atoms: _310  and  _311
REMARK  110  A    between atoms: _315  and  ZN_423
REMARK  111  A    between atoms: _316  and  _318
REMARK  112  A    between atoms: _318  and  _319
REMARK  113  A    between atoms: _318  and  _321
REMARK  114  A    between atoms: _321  and  _322
REMARK  115  A    between atoms: _325  and  _327
REMARK  116  A    between atoms: _327  and  _328
REMARK  117  A    between atoms: _330  and  _332
REMARK  118  A    between atoms: _332  and  _333
REMARK  119  A    between atoms: _332  and  _335
REMARK  120  A    between atoms: _335  and  _336
REMARK  121  A    between atoms: _339  and  _341
REMARK  122  A    between atoms: _341  and  _342
REMARK  123  A    between atoms: _341  and  _344
REMARK  124  A    between atoms: _344  and  _345
REMARK  125  A    between atoms: _348  and  _350
REMARK  126  A    between atoms: _350  and  _351
REMARK  127  A    between atoms: _354  and  _356
REMARK  128  A    between atoms: _356  and  _357
REMARK  129  A    between atoms: _356  and  _359
REMARK  130  A    between atoms: _359  and  _360
REMARK  131  A    between atoms: _365  and  _366
REMARK  132  A    between atoms: _368  and  _370
REMARK  133  A    between atoms: _370  and  _371
REMARK  134  A    between atoms: _370  and  _373
REMARK  135  A    between atoms: _373  and  _374
REMARK  136  A    between atoms: _377  and  _379
REMARK  137  A    between atoms: _379  and  _380
REMARK  138  A    between atoms: _379  and  _382
REMARK  139  A    between atoms: _382  and  _383
REMARK  140  A    between atoms: _383  and  _384
REMARK  141  A    between atoms: _387  and  _389
REMARK  142  A    between atoms: _389  and  _390
REMARK  143  A    between atoms: _389  and  _392
REMARK  144  A    between atoms: _392  and  _393
REMARK  145  A    between atoms: _393  and  _394
REMARK  146  A    between atoms: _394  and  _395
REMARK  147  A    between atoms: _404  and  _406
REMARK  148  A    between atoms: _406  and  _407
REMARK  149  A    between atoms: _409  and  _411
REMARK  150  A    between atoms: _411  and  _412
REMARK  151  A    between atoms: _411  and  _414
REMARK  152  A    between atoms: _414  and  _415
REMARK  153  A    between atoms: _418  and  _420
REMARK  154  A    between atoms: _420  and  _421
REMARK                            x       y       z     vdW  Elec       q    Type
REMARK                         _______ _______ _______ _____ _____    ______ ____
ROOT
ATOM      1  CA  ASP A   2      33.808  64.223  15.826  0.00  0.00    +0.160 C 
ENDROOT
BRANCH   1   4
ATOM      2  C   ASP A   1      33.132  62.104  16.779  0.00  0.00    +0.239 C 
ATOM      3  O   ASP A   1      34.307  61.779  16.952  0.00  0.00    -0.274 OA
ATOM      4  N   ASP A   2      32.784  63.273  16.265  0.00  0.00    -0.297 N 
ATOM      5  H   ASP A   2      31.778  63.518  16.172  0.00  0.00    +0.150 HD
BRANCH   2   6
ATOM      6  CA  ASP A   1      32.017  61.100  17.113  0.00  0.00    +0.156 C 
BRANCH   6   7
ATOM      7  N   ASP A   1      32.703  60.043  17.812  0.00  0.00    -0.238 NA
ATOM      8  H   ASP A   1      33.696  60.175  18.090  0.00  0.00    +0.142 HD
ENDBRANCH   6   7
BRANCH   6   9
ATOM      9  CB  ASP A   1      30.983  61.684  18.064  0.00  0.00    +0.140 C 
BRANCH   9  10
ATOM     10  CG  ASP A   1      29.893  62.540  17.352  0.00  0.00    +0.367 C 
ATOM     11  OD2 ASP A   1      28.862  62.790  18.022  0.00  0.00    -0.246 OA
ATOM     12  OD1 ASP A   1      30.073  62.943  16.178  0.00  0.00    -0.246 OA
ENDBRANCH   9  10
ENDBRANCH   6   9
ENDBRANCH   2   6
ENDBRANCH   1   4
BRANCH   1  13
ATOM     13  C   ASP A   2      34.726  64.715  16.908  0.00  0.00    +0.241 C 
ATOM     14  O   ASP A   2      34.284  65.179  17.935  0.00  0.00    -0.273 OA
ATOM     15  N   PHE A   3      36.018  64.619  16.654  0.00  0.00    -0.298 N 
ATOM     16  H   PHE A   3      36.341  64.167  15.774  0.00  0.00    +0.150 HD
BRANCH  15  17
ATOM     17  CA  PHE A   3      37.007  65.150  17.613  0.00  0.00    +0.141 C 
BRANCH  17  18
ATOM     18  C   PHE A   3      36.693  64.736  19.071  0.00  0.00    +0.227 C 
ATOM     19  O   PHE A   3      36.908  65.502  20.054  0.00  0.00    -0.286 OA
ENDBRANCH  17  18
BRANCH  17  20
ATOM     20  CB  PHE A   3      37.169  66.669  17.473  0.00  0.00    +0.054 C 
BRANCH  20  21
ATOM     21  CG  PHE A   3      37.701  67.092  16.144  0.00  0.00    -0.020 A 
ATOM     22  CD2 PHE A   3      39.083  67.044  15.889  0.00  0.00    -0.004 A 
ATOM     23  CE2 PHE A   3      39.589  67.447  14.607  0.00  0.00    -0.000 A 
ATOM     24  CZ  PHE A   3      38.709  67.895  13.625  0.00  0.00    -0.000 A 
ATOM     25  CE1 PHE A   3      37.347  67.963  13.866  0.00  0.00    -0.000 A 
ATOM     26  CD1 PHE A   3      36.831  67.546  15.139  0.00  0.00    -0.004 A 
ENDBRANCH  20  21
ENDBRANCH  17  20
ENDBRANCH  15  17
ENDBRANCH   1  13
BRANCH   1  27
ATOM     27  CB  ASP A   2      33.196  65.412  15.119  0.00  0.00    +0.143 C 
BRANCH  27  28
ATOM     28  CG  ASP A   2      32.580  65.026  13.820  0.00  0.00    +0.367 C 
ATOM     29  OD2 ASP A   2      32.272  63.836  13.689  0.00  0.00    -0.246 OA
ATOM     30  OD1 ASP A   2      32.413  65.891  12.958  0.00  0.00    -0.246 OA
ENDBRANCH  27  28
ENDBRANCH   1  27
TORSDOF 12
REMARK  Name = ../refined-set-2016/3d50/3d50_pocket.pdb
REMARK  154 active torsions:
REMARK  status: ('A' for Active; 'I' for Inactive)
REMARK    1  A    between atoms: _1  and  _3
REMARK    2  A    between atoms: _14  and  _17
REMARK    3  A    between atoms: _17  and  _18
REMARK    4  A    between atoms: _25  and  _26
REMARK    5  A    between atoms: _33  and  _34
REMARK    6  A    between atoms: _39  and  _41
REMARK    7  A    between atoms: _41  and  _42
REMARK    8  A    between atoms: _44  and  _46
REMARK    9  A    between atoms: _46  and  _47
REMARK   10  A    between atoms: _46  and  _49
REMARK   11  A    between atoms: _49  and  _50
REMARK   12  A    between atoms: _60  and  _62
REMARK   13  A    between atoms: _62  and  _63
REMARK   14  A    between atoms: _62  and  _65
REMARK   15  A    between atoms: _65  and  _66
REMARK   16  A    between atoms: _69  and  _71
REMARK   17  A    between atoms: _71  and  _72
REMARK   18  A    between atoms: _71  and  _74
REMARK   19  A    between atoms: _74  and  _75
REMARK   20  A    between atoms: _80  and  _81
REMARK   21  A    between atoms: _83  and  _85
REMARK   22  A    between atoms: _85  and  _86
REMARK   23  A    between atoms: _85  and  _88
REMARK   24  A    between atoms: _88  and  _89
REMARK   25  A    between atoms: _89  and  _90
REMARK   26  A    between atoms: _92  and  _94
REMARK   27  A    between atoms: _94  and  _95
REMARK   28  A    between atoms: _94  and  _97
REMARK   29  A    between atoms: _97  and  _98
REMARK   30  A    between atoms: _101  and  _103
REMARK   31  A    between atoms: _103  and  _104
REMARK   32  A    between atoms: _103  and  _106
REMARK   33  A    between atoms: _106  and  _107
REMARK   34  A    between atoms: _107  and  _109
REMARK   35  A    between atoms: _109  and  ZN_423
REMARK   36  A    between atoms: _111  and  _112
REMARK   37  A    between atoms: _117  and  _119
REMARK   38  A    between atoms: _119  and  _120
REMARK   39  A    between atoms: _119  and  _122
REMARK   40  A    between atoms: _122  and  _123
REMARK   41  A    between atoms: _129  and  _131
REMARK   42  A    between atoms: _131  and  _132
REMARK   43  A    between atoms: _131  and  _134
REMARK   44  A    between atoms: _134  and  _135
REMARK   45  A    between atoms: _135  and  _136
REMARK   46  A    between atoms: _136  and  _137
REMARK   47  A    between atoms: _146  and  _148
REMARK   48  A    between atoms: _148  and  _149
REMARK   49  A    between atoms: _148  and  _151
REMARK   50  A    between atoms: _151  and  _152
REMARK   51  A    between atoms: _157  and  _158
REMARK   52  A    between atoms: _160  and  _162
REMARK   53  A    between atoms: _162  and  _163
REMARK   54  A    between atoms: _162  and  _165
REMARK   55  A    between atoms: _165  and  _166
REMARK   56  A    between atoms: _168  and  _170
REMARK   57  A    between atoms: _170  and  _171
REMARK   58  A    between atoms: _170  and  _173
REMARK   59  A    between atoms: _173  and  _174
REMARK   60  A    between atoms: _179  and  _180
REMARK   61  A    between atoms: _182  and  _184
REMARK   62  A    between atoms: _184  and  _185
REMARK   63  A    between atoms: _184  and  _187
REMARK   64  A    between atoms: _187  and  _188
REMARK   65  A    between atoms: _191  and  _193
REMARK   66  A    between atoms: _193  and  _194
REMARK   67  A    between atoms: _193  and  _196
REMARK   68  A    between atoms: _196  and  _197
REMARK   69  A    between atoms: _197  and  _198
REMARK   70  A    between atoms: _198  and  _199
REMARK   71  A    between atoms: _208  and  _210
REMARK   72  A    between atoms: _210  and  _211
REMARK   73  A    between atoms: _210  and  _213
REMARK   74  A    between atoms: _213  and  _214
REMARK   75  A    between atoms: _217  and  _219
REMARK   76  A    between atoms: _219  and  _220
REMARK   77  A    between atoms: _219  and  _222
REMARK   78  A    between atoms: _222  and  _223
REMARK   79  A    between atoms: _226  and  _228
REMARK   80  A    between atoms: _228  and  _229
REMARK   81  A    between atoms: _228  and  _231
REMARK   82  A    between atoms: _231  and  _232
REMARK   83  A    between atoms: _238  and  _240
REMARK   84  A    between atoms: _240  and  _241
REMARK   85  A    between atoms: _240  and  _243
REMARK   86  A    between atoms: _243  and  _244
REMARK   87  A    between atoms: _249  and  _250
REMARK   88  A    between atoms: _252  and  _254
REMARK   89  A    between atoms: _254  and  _255
REMARK   90  A    between atoms: _254  and  _257
REMARK   91  A    between atoms: _257  and  _258
REMARK   92  A    between atoms: _261  and  _263
REMARK   93  A    between atoms: _263  and  _264
REMARK   94  A    between atoms: _263  and  _266
REMARK   95  A    between atoms: _266  and  _267
REMARK   96  A    between atoms: _267  and  _268
REMARK   97  A    between atoms: _268  and  _269
REMARK   98  A    between atoms: _278  and  _280
REMARK   99  A    between atoms: _280  and  _281
REMARK  100  A    between atoms: _280  and  _283
REMARK  101  A    between atoms: _283  and  _284
REMARK  102  A    between atoms: _294  and  _296
REMARK  103  A    between atoms: _296  and  _297
REMARK  104  A    between atoms: _296  and  _299
REMARK  105  A    between atoms: _299  and  _300
REMARK  106  A    between atoms: _305  and  _307
REMARK  107  A    between atoms: _307  and  _308
REMARK  108  A    between atoms: _307  and  _310
REMARK  109  A    between atoms: _310  and  _311
REMARK  110  A    between atoms: _315  and  ZN_423
REMARK  111  A    between atoms: _316  and  _318
REMARK  112  A    between atoms: _318  and  _319
REMARK  113  A    between atoms: _318  and  _321
REMARK  114  A    between atoms: _321  and  _322
REMARK  115  A    between atoms: _325  and  _327
REMARK  116  A    between atoms: _327  and  _328
REMARK  117  A    between atoms: _330  and  _332
REMARK  118  A    between atoms: _332  and  _333
REMARK  119  A    between atoms: _332  and  _335
REMARK  120  A    between atoms: _335  and  _336
REMARK  121  A    between atoms: _339  and  _341
REMARK  122  A    between atoms: _341  and  _342
REMARK  123  A    between atoms: _341  and  _344
REMARK  124  A    between atoms: _344  and  _345
REMARK  125  A    between atoms: _348  and  _350
REMARK  126  A    between atoms: _350  and  _351
REMARK  127  A    between atoms: _354  and  _356
REMARK  128  A    between atoms: _356  and  _357
REMARK  129  A    between atoms: _356  and  _359
REMARK  130  A    between atoms: _359  and  _360
REMARK  131  A    between atoms: _365  and  _366
REMARK  132  A    between atoms: _368  and  _370
REMARK  133  A    between atoms: _370  and  _371
REMARK  134  A    between atoms: _370  and  _373
REMARK  135  A    between atoms: _373  and  _374
REMARK  136  A    between atoms: _377  and  _379
REMARK  137  A    between atoms: _379  and  _380
REMARK  138  A    between atoms: _379  and  _382
REMARK  139  A    between atoms: _382  and  _383
REMARK  140  A    between atoms: _383  and  _384
REMARK  141  A    between atoms: _387  and  _389
REMARK  142  A    between atoms: _389  and  _390
REMARK  143  A    between atoms: _389  and  _392
REMARK  144  A    between atoms: _392  and  _393
REMARK  145  A    between atoms: _393  and  _394
REMARK  146  A    between atoms: _394  and  _395
REMARK  147  A    between atoms: _404  and  _406
REMARK  148  A    between atoms: _406  and  _407
REMARK  149  A    between atoms: _409  and  _411
REMARK  150  A    between atoms: _411  and  _412
REMARK  151  A    between atoms: _411  and  _414
REMARK  152  A    between atoms: _414  and  _415
REMARK  153  A    between atoms: _418  and  _420
REMARK  154  A    between atoms: _420  and  _421
REMARK                            x       y       z     vdW  Elec       q    Type
REMARK                         _______ _______ _______ _____ _____    ______ ____
ROOT
ATOM      1  CG  TYR A   1      24.941  59.971   0.990  0.00  0.00    -0.020 A 
ATOM      2  CD2 TYR A   1      24.533  58.905   1.759  0.00  0.00    -0.001 A 
ATOM      3  CE2 TYR A   1      24.389  59.017   3.105  0.00  0.00    +0.036 A 
ATOM      4  CZ  TYR A   1      24.680  60.205   3.719  0.00  0.00    +0.134 A 
ATOM      5  CE1 TYR A   1      25.112  61.278   2.970  0.00  0.00    +0.036 A 
ATOM      6  CD1 TYR A   1      25.248  61.155   1.630  0.00  0.00    -0.001 A 
ENDROOT
BRANCH   4   7
ATOM      7  OH  TYR A   1      24.564  60.318   5.067  0.00  0.00    -0.506 OA
ATOM      8  HH  TYR A   1      24.244  59.460   5.443  0.00  0.00    +0.292 HD
ENDBRANCH   4   7
BRANCH   1   9
ATOM      9  CB  TYR A   1      25.150  59.827  -0.497  0.00  0.00    +0.051 C 
BRANCH   9  10
ATOM     10  CA  TYR A   1      23.942  59.543  -1.380  0.00  0.00    +0.137 C 
BRANCH  10  11
ATOM     11  N   TYR A   1      24.398  59.631  -2.772  0.00  0.00    -0.239 NA
ATOM     12  H   TYR A   1      25.352  60.002  -2.957  0.00  0.00    +0.142 HD
ENDBRANCH  10  11
BRANCH  10  13
ATOM     13  C   TYR A   1      22.818  60.522  -1.021  0.00  0.00    +0.224 C 
ATOM     14  O   TYR A   1      22.872  61.670  -1.435  0.00  0.00    -0.287 OA
ENDBRANCH  10  13
ENDBRANCH   9  10
ENDBRANCH   1   9
TORSDOF 5
REMARK  Name = ../refined-set-2016/3d50/3d50_pocket.pdb
REMARK  154 active torsions:
REMARK  status: ('A' for Active; 'I' for Inactive)
REMARK    1  A    between atoms: _1  and  _3
REMARK    2  A    between atoms: _14  and  _17
REMARK    3  A    between atoms: _17  and  _18
REMARK    4  A    between atoms: _25  and  _26
REMARK    5  A    between atoms: _33  and  _34
REMARK    6  A    between atoms: _39  and  _41
REMARK    7  A    between atoms: _41  and  _42
REMARK    8  A    between atoms: _44  and  _46
REMARK    9  A    between atoms: _46  and  _47
REMARK   10  A    between atoms: _46  and  _49
REMARK   11  A    between atoms: _49  and  _50
REMARK   12  A    between atoms: _60  and  _62
REMARK   13  A    between atoms: _62  and  _63
REMARK   14  A    between atoms: _62  and  _65
REMARK   15  A    between atoms: _65  and  _66
REMARK   16  A    between atoms: _69  and  _71
REMARK   17  A    between atoms: _71  and  _72
REMARK   18  A    between atoms: _71  and  _74
REMARK   19  A    between atoms: _74  and  _75
REMARK   20  A    between atoms: _80  and  _81
REMARK   21  A    between atoms: _83  and  _85
REMARK   22  A    between atoms: _85  and  _86
REMARK   23  A    between atoms: _85  and  _88
REMARK   24  A    between atoms: _88  and  _89
REMARK   25  A    between atoms: _89  and  _90
REMARK   26  A    between atoms: _92  and  _94
REMARK   27  A    between atoms: _94  and  _95
REMARK   28  A    between atoms: _94  and  _97
REMARK   29  A    between atoms: _97  and  _98
REMARK   30  A    between atoms: _101  and  _103
REMARK   31  A    between atoms: _103  and  _104
REMARK   32  A    between atoms: _103  and  _106
REMARK   33  A    between atoms: _106  and  _107
REMARK   34  A    between atoms: _107  and  _109
REMARK   35  A    between atoms: _109  and  ZN_423
REMARK   36  A    between atoms: _111  and  _112
REMARK   37  A    between atoms: _117  and  _119
REMARK   38  A    between atoms: _119  and  _120
REMARK   39  A    between atoms: _119  and  _122
REMARK   40  A    between atoms: _122  and  _123
REMARK   41  A    between atoms: _129  and  _131
REMARK   42  A    between atoms: _131  and  _132
REMARK   43  A    between atoms: _131  and  _134
REMARK   44  A    between atoms: _134  and  _135
REMARK   45  A    between atoms: _135  and  _136
REMARK   46  A    between atoms: _136  and  _137
REMARK   47  A    between atoms: _146  and  _148
REMARK   48  A    between atoms: _148  and  _149
REMARK   49  A    between atoms: _148  and  _151
REMARK   50  A    between atoms: _151  and  _152
REMARK   51  A    between atoms: _157  and  _158
REMARK   52  A    between atoms: _160  and  _162
REMARK   53  A    between atoms: _162  and  _163
REMARK   54  A    between atoms: _162  and  _165
REMARK   55  A    between atoms: _165  and  _166
REMARK   56  A    between atoms: _168  and  _170
REMARK   57  A    between atoms: _170  and  _171
REMARK   58  A    between atoms: _170  and  _173
REMARK   59  A    between atoms: _173  and  _174
REMARK   60  A    between atoms: _179  and  _180
REMARK   61  A    between atoms: _182  and  _184
REMARK   62  A    between atoms: _184  and  _185
REMARK   63  A    between atoms: _184  and  _187
REMARK   64  A    between atoms: _187  and  _188
REMARK   65  A    between atoms: _191  and  _193
REMARK   66  A    between atoms: _193  and  _194
REMARK   67  A    between atoms: _193  and  _196
REMARK   68  A    between atoms: _196  and  _197
REMARK   69  A    between atoms: _197  and  _198
REMARK   70  A    between atoms: _198  and  _199
REMARK   71  A    between atoms: _208  and  _210
REMARK   72  A    between atoms: _210  and  _211
REMARK   73  A    between atoms: _210  and  _213
REMARK   74  A    between atoms: _213  and  _214
REMARK   75  A    between atoms: _217  and  _219
REMARK   76  A    between atoms: _219  and  _220
REMARK   77  A    between atoms: _219  and  _222
REMARK   78  A    between atoms: _222  and  _223
REMARK   79  A    between atoms: _226  and  _228
REMARK   80  A    between atoms: _228  and  _229
REMARK   81  A    between atoms: _228  and  _231
REMARK   82  A    between atoms: _231  and  _232
REMARK   83  A    between atoms: _238  and  _240
REMARK   84  A    between atoms: _240  and  _241
REMARK   85  A    between atoms: _240  and  _243
REMARK   86  A    between atoms: _243  and  _244
REMARK   87  A    between atoms: _249  and  _250
REMARK   88  A    between atoms: _252  and  _254
REMARK   89  A    between atoms: _254  and  _255
REMARK   90  A    between atoms: _254  and  _257
REMARK   91  A    between atoms: _257  and  _258
REMARK   92  A    between atoms: _261  and  _263
REMARK   93  A    between atoms: _263  and  _264
REMARK   94  A    between atoms: _263  and  _266
REMARK   95  A    between atoms: _266  and  _267
REMARK   96  A    between atoms: _267  and  _268
REMARK   97  A    between atoms: _268  and  _269
REMARK   98  A    between atoms: _278  and  _280
REMARK   99  A    between atoms: _280  and  _281
REMARK  100  A    between atoms: _280  and  _283
REMARK  101  A    between atoms: _283  and  _284
REMARK  102  A    between atoms: _294  and  _296
REMARK  103  A    between atoms: _296  and  _297
REMARK  104  A    between atoms: _296  and  _299
REMARK  105  A    between atoms: _299  and  _300
REMARK  106  A    between atoms: _305  and  _307
REMARK  107  A    between atoms: _307  and  _308
REMARK  108  A    between atoms: _307  and  _310
REMARK  109  A    between atoms: _310  and  _311
REMARK  110  A    between atoms: _315  and  ZN_423
REMARK  111  A    between atoms: _316  and  _318
REMARK  112  A    between atoms: _318  and  _319
REMARK  113  A    between atoms: _318  and  _321
REMARK  114  A    between atoms: _321  and  _322
REMARK  115  A    between atoms: _325  and  _327
REMARK  116  A    between atoms: _327  and  _328
REMARK  117  A    between atoms: _330  and  _332
REMARK  118  A    between atoms: _332  and  _333
REMARK  119  A    between atoms: _332  and  _335
REMARK  120  A    between atoms: _335  and  _336
REMARK  121  A    between atoms: _339  and  _341
REMARK  122  A    between atoms: _341  and  _342
REMARK  123  A    between atoms: _341  and  _344
REMARK  124  A    between atoms: _344  and  _345
REMARK  125  A    between atoms: _348  and  _350
REMARK  126  A    between atoms: _350  and  _351
REMARK  127  A    between atoms: _354  and  _356
REMARK  128  A    between atoms: _356  and  _357
REMARK  129  A    between atoms: _356  and  _359
REMARK  130  A    between atoms: _359  and  _360
REMARK  131  A    between atoms: _365  and  _366
REMARK  132  A    between atoms: _368  and  _370
REMARK  133  A    between atoms: _370  and  _371
REMARK  134  A    between atoms: _370  and  _373
REMARK  135  A    between atoms: _373  and  _374
REMARK  136  A    between atoms: _377  and  _379
REMARK  137  A    between atoms: _379  and  _380
REMARK  138  A    between atoms: _379  and  _382
REMARK  139  A    between atoms: _382  and  _383
REMARK  140  A    between atoms: _383  and  _384
REMARK  141  A    between atoms: _387  and  _389
REMARK  142  A    between atoms: _389  and  _390
REMARK  143  A    between atoms: _389  and  _392
REMARK  144  A    between atoms: _392  and  _393
REMARK  145  A    between atoms: _393  and  _394
REMARK  146  A    between atoms: _394  and  _395
REMARK  147  A    between atoms: _404  and  _406
REMARK  148  A    between atoms: _406  and  _407
REMARK  149  A    between atoms: _409  and  _411
REMARK  150  A    between atoms: _411  and  _412
REMARK  151  A    between atoms: _411  and  _414
REMARK  152  A    between atoms: _414  and  _415
REMARK  153  A    between atoms: _418  and  _420
REMARK  154  A    between atoms: _420  and  _421
REMARK                            x       y       z     vdW  Elec       q    Type
REMARK                         _______ _______ _______ _____ _____    ______ ____
ROOT
ATOM      1  CA  ARG A   2      17.139  61.908   4.478  0.00  0.00    +0.137 C 
ENDROOT
BRANCH   1   4
ATOM      2  C   ASP A   1      19.462  61.111   4.823  0.00  0.00    +0.239 C 
ATOM      3  O   ASP A   1      19.122  60.428   5.839  0.00  0.00    -0.274 OA
ATOM      4  N   ARG A   2      18.594  61.829   4.107  0.00  0.00    -0.298 N 
ATOM      5  H   ARG A   2      18.933  62.347   3.271  0.00  0.00    +0.150 HD
BRANCH   2   6
ATOM      6  CA  ASP A   1      20.928  61.067   4.266  0.00  0.00    +0.156 C 
BRANCH   6   7
ATOM      7  N   ASP A   1      21.004  61.381   2.824  0.00  0.00    -0.238 NA
ATOM      8  H   ASP A   1      21.155  62.367   2.530  0.00  0.00    +0.142 HD
ENDBRANCH   6   7
BRANCH   6   9
ATOM      9  CB  ASP A   1      21.863  61.984   5.119  0.00  0.00    +0.140 C 
BRANCH   9  10
ATOM     10  CG  ASP A   1      21.590  63.509   4.996  0.00  0.00    +0.367 C 
ATOM     11  OD2 ASP A   1      22.104  64.269   5.908  0.00  0.00    -0.246 OA
ATOM     12  OD1 ASP A   1      20.925  63.956   4.014  0.00  0.00    -0.246 OA
ENDBRANCH   9  10
ENDBRANCH   6   9
ENDBRANCH   2   6
ENDBRANCH   1   4
BRANCH   1  13
ATOM     13  C   ARG A   2      16.333  62.493   3.358  0.00  0.00    +0.227 C 
ATOM     14  O   ARG A   2      16.858  63.233   2.477  0.00  0.00    -0.286 OA
ENDBRANCH   1  13
BRANCH   1  15
ATOM     15  CB  ARG A   2      16.921  62.689   5.790  0.00  0.00    +0.031 C 
BRANCH  15  16
ATOM     16  CG  ARG A   2      17.445  64.125   5.781  0.00  0.00    +0.045 C 
BRANCH  16  17
ATOM     17  CD  ARG A   2      17.372  64.707   7.219  0.00  0.00    +0.174 C 
BRANCH  17  18
ATOM     18  NE  ARG A   2      17.974  66.043   7.330  0.00  0.00    -0.265 N 
ATOM     19  HE  ARG A   2      18.935  66.108   7.722  0.00  0.00    +0.259 HD
ATOM     20  CZ  ARG A   2      17.369  67.192   6.960  0.00  0.00    +0.342 C 
ATOM     21  NH2 ARG A   2      18.007  68.348   7.076  0.00  0.00    -0.292 N 
ATOM     22 HH21 ARG A   2      18.976  68.372   7.453  0.00  0.00    +0.255 HD
ATOM     23 HH22 ARG A   2      17.539  69.231   6.790  0.00  0.00    +0.255 HD
ATOM     24  NH1 ARG A   2      16.138  67.185   6.419  0.00  0.00    -0.292 N 
ATOM     25 HH11 ARG A   2      15.636  66.285   6.280  0.00  0.00    +0.255 HD
ATOM     26 HH12 ARG A   2      15.688  68.080   6.140  0.00  0.00    +0.255 HD
ENDBRANCH  17  18
ENDBRANCH  16  17
ENDBRANCH  15  16
ENDBRANCH   1  15
TORSDOF 10
REMARK  Name = ../refined-set-2016/3d50/3d50_pocket.pdb
REMARK  154 active torsions:
REMARK  status: ('A' for Active; 'I' for Inactive)
REMARK    1  A    between atoms: _1  and  _3
REMARK    2  A    between atoms: _14  and  _17
REMARK    3  A    between atoms: _17  and  _18
REMARK    4  A    between atoms: _25  and  _26
REMARK    5  A    between atoms: _33  and  _34
REMARK    6  A    between atoms: _39  and  _41
REMARK    7  A    between atoms: _41  and  _42
REMARK    8  A    between atoms: _44  and  _46
REMARK    9  A    between atoms: _46  and  _47
REMARK   10  A    between atoms: _46  and  _49
REMARK   11  A    between atoms: _49  and  _50
REMARK   12  A    between atoms: _60  and  _62
REMARK   13  A    between atoms: _62  and  _63
REMARK   14  A    between atoms: _62  and  _65
REMARK   15  A    between atoms: _65  and  _66
REMARK   16  A    between atoms: _69  and  _71
REMARK   17  A    between atoms: _71  and  _72
REMARK   18  A    between atoms: _71  and  _74
REMARK   19  A    between atoms: _74  and  _75
REMARK   20  A    between atoms: _80  and  _81
REMARK   21  A    between atoms: _83  and  _85
REMARK   22  A    between atoms: _85  and  _86
REMARK   23  A    between atoms: _85  and  _88
REMARK   24  A    between atoms: _88  and  _89
REMARK   25  A    between atoms: _89  and  _90
REMARK   26  A    between atoms: _92  and  _94
REMARK   27  A    between atoms: _94  and  _95
REMARK   28  A    between atoms: _94  and  _97
REMARK   29  A    between atoms: _97  and  _98
REMARK   30  A    between atoms: _101  and  _103
REMARK   31  A    between atoms: _103  and  _104
REMARK   32  A    between atoms: _103  and  _106
REMARK   33  A    between atoms: _106  and  _107
REMARK   34  A    between atoms: _107  and  _109
REMARK   35  A    between atoms: _109  and  ZN_423
REMARK   36  A    between atoms: _111  and  _112
REMARK   37  A    between atoms: _117  and  _119
REMARK   38  A    between atoms: _119  and  _120
REMARK   39  A    between atoms: _119  and  _122
REMARK   40  A    between atoms: _122  and  _123
REMARK   41  A    between atoms: _129  and  _131
REMARK   42  A    between atoms: _131  and  _132
REMARK   43  A    between atoms: _131  and  _134
REMARK   44  A    between atoms: _134  and  _135
REMARK   45  A    between atoms: _135  and  _136
REMARK   46  A    between atoms: _136  and  _137
REMARK   47  A    between atoms: _146  and  _148
REMARK   48  A    between atoms: _148  and  _149
REMARK   49  A    between atoms: _148  and  _151
REMARK   50  A    between atoms: _151  and  _152
REMARK   51  A    between atoms: _157  and  _158
REMARK   52  A    between atoms: _160  and  _162
REMARK   53  A    between atoms: _162  and  _163
REMARK   54  A    between atoms: _162  and  _165
REMARK   55  A    between atoms: _165  and  _166
REMARK   56  A    between atoms: _168  and  _170
REMARK   57  A    between atoms: _170  and  _171
REMARK   58  A    between atoms: _170  and  _173
REMARK   59  A    between atoms: _173  and  _174
REMARK   60  A    between atoms: _179  and  _180
REMARK   61  A    between atoms: _182  and  _184
REMARK   62  A    between atoms: _184  and  _185
REMARK   63  A    between atoms: _184  and  _187
REMARK   64  A    between atoms: _187  and  _188
REMARK   65  A    between atoms: _191  and  _193
REMARK   66  A    between atoms: _193  and  _194
REMARK   67  A    between atoms: _193  and  _196
REMARK   68  A    between atoms: _196  and  _197
REMARK   69  A    between atoms: _197  and  _198
REMARK   70  A    between atoms: _198  and  _199
REMARK   71  A    between atoms: _208  and  _210
REMARK   72  A    between atoms: _210  and  _211
REMARK   73  A    between atoms: _210  and  _213
REMARK   74  A    between atoms: _213  and  _214
REMARK   75  A    between atoms: _217  and  _219
REMARK   76  A    between atoms: _219  and  _220
REMARK   77  A    between atoms: _219  and  _222
REMARK   78  A    between atoms: _222  and  _223
REMARK   79  A    between atoms: _226  and  _228
REMARK   80  A    between atoms: _228  and  _229
REMARK   81  A    between atoms: _228  and  _231
REMARK   82  A    between atoms: _231  and  _232
REMARK   83  A    between atoms: _238  and  _240
REMARK   84  A    between atoms: _240  and  _241
REMARK   85  A    between atoms: _240  and  _243
REMARK   86  A    between atoms: _243  and  _244
REMARK   87  A    between atoms: _249  and  _250
REMARK   88  A    between atoms: _252  and  _254
REMARK   89  A    between atoms: _254  and  _255
REMARK   90  A    between atoms: _254  and  _257
REMARK   91  A    between atoms: _257  and  _258
REMARK   92  A    between atoms: _261  and  _263
REMARK   93  A    between atoms: _263  and  _264
REMARK   94  A    between atoms: _263  and  _266
REMARK   95  A    between atoms: _266  and  _267
REMARK   96  A    between atoms: _267  and  _268
REMARK   97  A    between atoms: _268  and  _269
REMARK   98  A    between atoms: _278  and  _280
REMARK   99  A    between atoms: _280  and  _281
REMARK  100  A    between atoms: _280  and  _283
REMARK  101  A    between atoms: _283  and  _284
REMARK  102  A    between atoms: _294  and  _296
REMARK  103  A    between atoms: _296  and  _297
REMARK  104  A    between atoms: _296  and  _299
REMARK  105  A    between atoms: _299  and  _300
REMARK  106  A    between atoms: _305  and  _307
REMARK  107  A    between atoms: _307  and  _308
REMARK  108  A    between atoms: _307  and  _310
REMARK  109  A    between atoms: _310  and  _311
REMARK  110  A    between atoms: _315  and  ZN_423
REMARK  111  A    between atoms: _316  and  _318
REMARK  112  A    between atoms: _318  and  _319
REMARK  113  A    between atoms: _318  and  _321
REMARK  114  A    between atoms: _321  and  _322
REMARK  115  A    between atoms: _325  and  _327
REMARK  116  A    between atoms: _327  and  _328
REMARK  117  A    between atoms: _330  and  _332
REMARK  118  A    between atoms: _332  and  _333
REMARK  119  A    between atoms: _332  and  _335
REMARK  120  A    between atoms: _335  and  _336
REMARK  121  A    between atoms: _339  and  _341
REMARK  122  A    between atoms: _341  and  _342
REMARK  123  A    between atoms: _341  and  _344
REMARK  124  A    between atoms: _344  and  _345
REMARK  125  A    between atoms: _348  and  _350
REMARK  126  A    between atoms: _350  and  _351
REMARK  127  A    between atoms: _354  and  _356
REMARK  128  A    between atoms: _356  and  _357
REMARK  129  A    between atoms: _356  and  _359
REMARK  130  A    between atoms: _359  and  _360
REMARK  131  A    between atoms: _365  and  _366
REMARK  132  A    between atoms: _368  and  _370
REMARK  133  A    between atoms: _370  and  _371
REMARK  134  A    between atoms: _370  and  _373
REMARK  135  A    between atoms: _373  and  _374
REMARK  136  A    between atoms: _377  and  _379
REMARK  137  A    between atoms: _379  and  _380
REMARK  138  A    between atoms: _379  and  _382
REMARK  139  A    between atoms: _382  and  _383
REMARK  140  A    between atoms: _383  and  _384
REMARK  141  A    between atoms: _387  and  _389
REMARK  142  A    between atoms: _389  and  _390
REMARK  143  A    between atoms: _389  and  _392
REMARK  144  A    between atoms: _392  and  _393
REMARK  145  A    between atoms: _393  and  _394
REMARK  146  A    between atoms: _394  and  _395
REMARK  147  A    between atoms: _404  and  _406
REMARK  148  A    between atoms: _406  and  _407
REMARK  149  A    between atoms: _409  and  _411
REMARK  150  A    between atoms: _411  and  _412
REMARK  151  A    between atoms: _411  and  _414
REMARK  152  A    between atoms: _414  and  _415
REMARK  153  A    between atoms: _418  and  _420
REMARK  154  A    between atoms: _420  and  _421
REMARK                            x       y       z     vdW  Elec       q    Type
REMARK                         _______ _______ _______ _____ _____    ______ ____
ROOT
ATOM      1  CG  TRP A   1      24.716  64.550   0.524  0.00  0.00    -0.002 A 
ATOM      2  CD2 TRP A   1      25.476  64.826   1.700  0.00  0.00    +0.013 A 
ATOM      3  CE2 TRP A   1      24.564  64.812   2.808  0.00  0.00    +0.056 A 
ATOM      4  CZ2 TRP A   1      24.962  65.045   4.148  0.00  0.00    +0.017 A 
ATOM      5  CH2 TRP A   1      26.318  65.288   4.375  0.00  0.00    +0.001 A 
ATOM      6  CZ3 TRP A   1      27.275  65.303   3.255  0.00  0.00    +0.000 A 
ATOM      7  NE1 TRP A   1      23.312  64.508   2.303  0.00  0.00    -0.352 N 
ATOM      8  HE1 TRP A   1      22.443  64.400   2.865  0.00  0.00    +0.166 HD
ATOM      9  CE3 TRP A   1      26.855  65.117   1.920  0.00  0.00    +0.001 A 
ATOM     10  CD1 TRP A   1      23.403  64.372   0.938  0.00  0.00    +0.068 A 
ENDROOT
BRANCH   1  11
ATOM     11  CB  TRP A   1      25.273  64.468  -0.878  0.00  0.00    +0.053 C 
BRANCH  11  12
ATOM     12  CA  TRP A   1      24.417  65.123  -1.939  0.00  0.00    +0.137 C 
BRANCH  12  13
ATOM     13  N   TRP A   1      23.156  64.373  -2.109  0.00  0.00    -0.239 NA
ATOM     14  H   TRP A   1      23.163  63.334  -2.066  0.00  0.00    +0.142 HD
ENDBRANCH  12  13
BRANCH  12  15
ATOM     15  C   TRP A   1      25.152  65.161  -3.263  0.00  0.00    +0.224 C 
ATOM     16  O   TRP A   1      26.280  64.640  -3.423  0.00  0.00    -0.287 OA
ENDBRANCH  12  15
ENDBRANCH  11  12
ENDBRANCH   1  11
TORSDOF 4
REMARK  Name = ../refined-set-2016/3d50/3d50_pocket.pdb
REMARK  154 active torsions:
REMARK  status: ('A' for Active; 'I' for Inactive)
REMARK    1  A    between atoms: _1  and  _3
REMARK    2  A    between atoms: _14  and  _17
REMARK    3  A    between atoms: _17  and  _18
REMARK    4  A    between atoms: _25  and  _26
REMARK    5  A    between atoms: _33  and  _34
REMARK    6  A    between atoms: _39  and  _41
REMARK    7  A    between atoms: _41  and  _42
REMARK    8  A    between atoms: _44  and  _46
REMARK    9  A    between atoms: _46  and  _47
REMARK   10  A    between atoms: _46  and  _49
REMARK   11  A    between atoms: _49  and  _50
REMARK   12  A    between atoms: _60  and  _62
REMARK   13  A    between atoms: _62  and  _63
REMARK   14  A    between atoms: _62  and  _65
REMARK   15  A    between atoms: _65  and  _66
REMARK   16  A    between atoms: _69  and  _71
REMARK   17  A    between atoms: _71  and  _72
REMARK   18  A    between atoms: _71  and  _74
REMARK   19  A    between atoms: _74  and  _75
REMARK   20  A    between atoms: _80  and  _81
REMARK   21  A    between atoms: _83  and  _85
REMARK   22  A    between atoms: _85  and  _86
REMARK   23  A    between atoms: _85  and  _88
REMARK   24  A    between atoms: _88  and  _89
REMARK   25  A    between atoms: _89  and  _90
REMARK   26  A    between atoms: _92  and  _94
REMARK   27  A    between atoms: _94  and  _95
REMARK   28  A    between atoms: _94  and  _97
REMARK   29  A    between atoms: _97  and  _98
REMARK   30  A    between atoms: _101  and  _103
REMARK   31  A    between atoms: _103  and  _104
REMARK   32  A    between atoms: _103  and  _106
REMARK   33  A    between atoms: _106  and  _107
REMARK   34  A    between atoms: _107  and  _109
REMARK   35  A    between atoms: _109  and  ZN_423
REMARK   36  A    between atoms: _111  and  _112
REMARK   37  A    between atoms: _117  and  _119
REMARK   38  A    between atoms: _119  and  _120
REMARK   39  A    between atoms: _119  and  _122
REMARK   40  A    between atoms: _122  and  _123
REMARK   41  A    between atoms: _129  and  _131
REMARK   42  A    between atoms: _131  and  _132
REMARK   43  A    between atoms: _131  and  _134
REMARK   44  A    between atoms: _134  and  _135
REMARK   45  A    between atoms: _135  and  _136
REMARK   46  A    between atoms: _136  and  _137
REMARK   47  A    between atoms: _146  and  _148
REMARK   48  A    between atoms: _148  and  _149
REMARK   49  A    between atoms: _148  and  _151
REMARK   50  A    between atoms: _151  and  _152
REMARK   51  A    between atoms: _157  and  _158
REMARK   52  A    between atoms: _160  and  _162
REMARK   53  A    between atoms: _162  and  _163
REMARK   54  A    between atoms: _162  and  _165
REMARK   55  A    between atoms: _165  and  _166
REMARK   56  A    between atoms: _168  and  _170
REMARK   57  A    between atoms: _170  and  _171
REMARK   58  A    between atoms: _170  and  _173
REMARK   59  A    between atoms: _173  and  _174
REMARK   60  A    between atoms: _179  and  _180
REMARK   61  A    between atoms: _182  and  _184
REMARK   62  A    between atoms: _184  and  _185
REMARK   63  A    between atoms: _184  and  _187
REMARK   64  A    between atoms: _187  and  _188
REMARK   65  A    between atoms: _191  and  _193
REMARK   66  A    between atoms: _193  and  _194
REMARK   67  A    between atoms: _193  and  _196
REMARK   68  A    between atoms: _196  and  _197
REMARK   69  A    between atoms: _197  and  _198
REMARK   70  A    between atoms: _198  and  _199
REMARK   71  A    between atoms: _208  and  _210
REMARK   72  A    between atoms: _210  and  _211
REMARK   73  A    between atoms: _210  and  _213
REMARK   74  A    between atoms: _213  and  _214
REMARK   75  A    between atoms: _217  and  _219
REMARK   76  A    between atoms: _219  and  _220
REMARK   77  A    between atoms: _219  and  _222
REMARK   78  A    between atoms: _222  and  _223
REMARK   79  A    between atoms: _226  and  _228
REMARK   80  A    between atoms: _228  and  _229
REMARK   81  A    between atoms: _228  and  _231
REMARK   82  A    between atoms: _231  and  _232
REMARK   83  A    between atoms: _238  and  _240
REMARK   84  A    between atoms: _240  and  _241
REMARK   85  A    between atoms: _240  and  _243
REMARK   86  A    between atoms: _243  and  _244
REMARK   87  A    between atoms: _249  and  _250
REMARK   88  A    between atoms: _252  and  _254
REMARK   89  A    between atoms: _254  and  _255
REMARK   90  A    between atoms: _254  and  _257
REMARK   91  A    between atoms: _257  and  _258
REMARK   92  A    between atoms: _261  and  _263
REMARK   93  A    between atoms: _263  and  _264
REMARK   94  A    between atoms: _263  and  _266
REMARK   95  A    between atoms: _266  and  _267
REMARK   96  A    between atoms: _267  and  _268
REMARK   97  A    between atoms: _268  and  _269
REMARK   98  A    between atoms: _278  and  _280
REMARK   99  A    between atoms: _280  and  _281
REMARK  100  A    between atoms: _280  and  _283
REMARK  101  A    between atoms: _283  and  _284
REMARK  102  A    between atoms: _294  and  _296
REMARK  103  A    between atoms: _296  and  _297
REMARK  104  A    between atoms: _296  and  _299
REMARK  105  A    between atoms: _299  and  _300
REMARK  106  A    between atoms: _305  and  _307
REMARK  107  A    between atoms: _307  and  _308
REMARK  108  A    between atoms: _307  and  _310
REMARK  109  A    between atoms: _310  and  _311
REMARK  110  A    between atoms: _315  and  ZN_423
REMARK  111  A    between atoms: _316  and  _318
REMARK  112  A    between atoms: _318  and  _319
REMARK  113  A    between atoms: _318  and  _321
REMARK  114  A    between atoms: _321  and  _322
REMARK  115  A    between atoms: _325  and  _327
REMARK  116  A    between atoms: _327  and  _328
REMARK  117  A    between atoms: _330  and  _332
REMARK  118  A    between atoms: _332  and  _333
REMARK  119  A    between atoms: _332  and  _335
REMARK  120  A    between atoms: _335  and  _336
REMARK  121  A    between atoms: _339  and  _341
REMARK  122  A    between atoms: _341  and  _342
REMARK  123  A    between atoms: _341  and  _344
REMARK  124  A    between atoms: _344  and  _345
REMARK  125  A    between atoms: _348  and  _350
REMARK  126  A    between atoms: _350  and  _351
REMARK  127  A    between atoms: _354  and  _356
REMARK  128  A    between atoms: _356  and  _357
REMARK  129  A    between atoms: _356  and  _359
REMARK  130  A    between atoms: _359  and  _360
REMARK  131  A    between atoms: _365  and  _366
REMARK  132  A    between atoms: _368  and  _370
REMARK  133  A    between atoms: _370  and  _371
REMARK  134  A    between atoms: _370  and  _373
REMARK  135  A    between atoms: _373  and  _374
REMARK  136  A    between atoms: _377  and  _379
REMARK  137  A    between atoms: _379  and  _380
REMARK  138  A    between atoms: _379  and  _382
REMARK  139  A    between atoms: _382  and  _383
REMARK  140  A    between atoms: _383  and  _384
REMARK  141  A    between atoms: _387  and  _389
REMARK  142  A    between atoms: _389  and  _390
REMARK  143  A    between atoms: _389  and  _392
REMARK  144  A    between atoms: _392  and  _393
REMARK  145  A    between atoms: _393  and  _394
REMARK  146  A    between atoms: _394  and  _395
REMARK  147  A    between atoms: _404  and  _406
REMARK  148  A    between atoms: _406  and  _407
REMARK  149  A    between atoms: _409  and  _411
REMARK  150  A    between atoms: _411  and  _412
REMARK  151  A    between atoms: _411  and  _414
REMARK  152  A    between atoms: _414  and  _415
REMARK  153  A    between atoms: _418  and  _420
REMARK  154  A    between atoms: _420  and  _421
REMARK                            x       y       z     vdW  Elec       q    Type
REMARK                         _______ _______ _______ _____ _____    ______ ____
ROOT
ATOM      1  CA  THR A   1      34.631  68.315  -2.190  0.00  0.00    +0.160 C 
ENDROOT
BRANCH   1   2
ATOM      2  N   THR A   1      36.099  68.225  -2.184  0.00  0.00    -0.237 NA
ATOM      3  H   THR A   1      36.579  67.799  -1.366  0.00  0.00    +0.142 HD
ENDBRANCH   1   2
BRANCH   1   4
ATOM      4  CB  THR A   1      34.049  67.612  -0.942  0.00  0.00    +0.134 C 
ATOM      5  CG2 THR A   1      34.417  66.159  -0.901  0.00  0.00    +0.034 C 
BRANCH   4   6
ATOM      6  OG1 THR A   1      34.562  68.237   0.224  0.00  0.00    -0.383 OA
ATOM      7  HG1 THR A   1      34.192  67.790   1.026  0.00  0.00    +0.210 HD
ENDBRANCH   4   6
ENDBRANCH   1   4
BRANCH   1   8
ATOM      8  C   THR A   1      34.055  69.764  -2.235  0.00  0.00    +0.227 C 
ATOM      9  O   THR A   1      32.903  69.950  -2.576  0.00  0.00    -0.287 OA
ENDBRANCH   1   8
TORSDOF 4
REMARK  Name = ../refined-set-2016/3d50/3d50_pocket.pdb
REMARK  154 active torsions:
REMARK  status: ('A' for Active; 'I' for Inactive)
REMARK    1  A    between atoms: _1  and  _3
REMARK    2  A    between atoms: _14  and  _17
REMARK    3  A    between atoms: _17  and  _18
REMARK    4  A    between atoms: _25  and  _26
REMARK    5  A    between atoms: _33  and  _34
REMARK    6  A    between atoms: _39  and  _41
REMARK    7  A    between atoms: _41  and  _42
REMARK    8  A    between atoms: _44  and  _46
REMARK    9  A    between atoms: _46  and  _47
REMARK   10  A    between atoms: _46  and  _49
REMARK   11  A    between atoms: _49  and  _50
REMARK   12  A    between atoms: _60  and  _62
REMARK   13  A    between atoms: _62  and  _63
REMARK   14  A    between atoms: _62  and  _65
REMARK   15  A    between atoms: _65  and  _66
REMARK   16  A    between atoms: _69  and  _71
REMARK   17  A    between atoms: _71  and  _72
REMARK   18  A    between atoms: _71  and  _74
REMARK   19  A    between atoms: _74  and  _75
REMARK   20  A    between atoms: _80  and  _81
REMARK   21  A    between atoms: _83  and  _85
REMARK   22  A    between atoms: _85  and  _86
REMARK   23  A    between atoms: _85  and  _88
REMARK   24  A    between atoms: _88  and  _89
REMARK   25  A    between atoms: _89  and  _90
REMARK   26  A    between atoms: _92  and  _94
REMARK   27  A    between atoms: _94  and  _95
REMARK   28  A    between atoms: _94  and  _97
REMARK   29  A    between atoms: _97  and  _98
REMARK   30  A    between atoms: _101  and  _103
REMARK   31  A    between atoms: _103  and  _104
REMARK   32  A    between atoms: _103  and  _106
REMARK   33  A    between atoms: _106  and  _107
REMARK   34  A    between atoms: _107  and  _109
REMARK   35  A    between atoms: _109  and  ZN_423
REMARK   36  A    between atoms: _111  and  _112
REMARK   37  A    between atoms: _117  and  _119
REMARK   38  A    between atoms: _119  and  _120
REMARK   39  A    between atoms: _119  and  _122
REMARK   40  A    between atoms: _122  and  _123
REMARK   41  A    between atoms: _129  and  _131
REMARK   42  A    between atoms: _131  and  _132
REMARK   43  A    between atoms: _131  and  _134
REMARK   44  A    between atoms: _134  and  _135
REMARK   45  A    between atoms: _135  and  _136
REMARK   46  A    between atoms: _136  and  _137
REMARK   47  A    between atoms: _146  and  _148
REMARK   48  A    between atoms: _148  and  _149
REMARK   49  A    between atoms: _148  and  _151
REMARK   50  A    between atoms: _151  and  _152
REMARK   51  A    between atoms: _157  and  _158
REMARK   52  A    between atoms: _160  and  _162
REMARK   53  A    between atoms: _162  and  _163
REMARK   54  A    between atoms: _162  and  _165
REMARK   55  A    between atoms: _165  and  _166
REMARK   56  A    between atoms: _168  and  _170
REMARK   57  A    between atoms: _170  and  _171
REMARK   58  A    between atoms: _170  and  _173
REMARK   59  A    between atoms: _173  and  _174
REMARK   60  A    between atoms: _179  and  _180
REMARK   61  A    between atoms: _182  and  _184
REMARK   62  A    between atoms: _184  and  _185
REMARK   63  A    between atoms: _184  and  _187
REMARK   64  A    between atoms: _187  and  _188
REMARK   65  A    between atoms: _191  and  _193
REMARK   66  A    between atoms: _193  and  _194
REMARK   67  A    between atoms: _193  and  _196
REMARK   68  A    between atoms: _196  and  _197
REMARK   69  A    between atoms: _197  and  _198
REMARK   70  A    between atoms: _198  and  _199
REMARK   71  A    between atoms: _208  and  _210
REMARK   72  A    between atoms: _210  and  _211
REMARK   73  A    between atoms: _210  and  _213
REMARK   74  A    between atoms: _213  and  _214
REMARK   75  A    between atoms: _217  and  _219
REMARK   76  A    between atoms: _219  and  _220
REMARK   77  A    between atoms: _219  and  _222
REMARK   78  A    between atoms: _222  and  _223
REMARK   79  A    between atoms: _226  and  _228
REMARK   80  A    between atoms: _228  and  _229
REMARK   81  A    between atoms: _228  and  _231
REMARK   82  A    between atoms: _231  and  _232
REMARK   83  A    between atoms: _238  and  _240
REMARK   84  A    between atoms: _240  and  _241
REMARK   85  A    between atoms: _240  and  _243
REMARK   86  A    between atoms: _243  and  _244
REMARK   87  A    between atoms: _249  and  _250
REMARK   88  A    between atoms: _252  and  _254
REMARK   89  A    between atoms: _254  and  _255
REMARK   90  A    between atoms: _254  and  _257
REMARK   91  A    between atoms: _257  and  _258
REMARK   92  A    between atoms: _261  and  _263
REMARK   93  A    between atoms: _263  and  _264
REMARK   94  A    between atoms: _263  and  _266
REMARK   95  A    between atoms: _266  and  _267
REMARK   96  A    between atoms: _267  and  _268
REMARK   97  A    between atoms: _268  and  _269
REMARK   98  A    between atoms: _278  and  _280
REMARK   99  A    between atoms: _280  and  _281
REMARK  100  A    between atoms: _280  and  _283
REMARK  101  A    between atoms: _283  and  _284
REMARK  102  A    between atoms: _294  and  _296
REMARK  103  A    between atoms: _296  and  _297
REMARK  104  A    between atoms: _296  and  _299
REMARK  105  A    between atoms: _299  and  _300
REMARK  106  A    between atoms: _305  and  _307
REMARK  107  A    between atoms: _307  and  _308
REMARK  108  A    between atoms: _307  and  _310
REMARK  109  A    between atoms: _310  and  _311
REMARK  110  A    between atoms: _315  and  ZN_423
REMARK  111  A    between atoms: _316  and  _318
REMARK  112  A    between atoms: _318  and  _319
REMARK  113  A    between atoms: _318  and  _321
REMARK  114  A    between atoms: _321  and  _322
REMARK  115  A    between atoms: _325  and  _327
REMARK  116  A    between atoms: _327  and  _328
REMARK  117  A    between atoms: _330  and  _332
REMARK  118  A    between atoms: _332  and  _333
REMARK  119  A    between atoms: _332  and  _335
REMARK  120  A    between atoms: _335  and  _336
REMARK  121  A    between atoms: _339  and  _341
REMARK  122  A    between atoms: _341  and  _342
REMARK  123  A    between atoms: _341  and  _344
REMARK  124  A    between atoms: _344  and  _345
REMARK  125  A    between atoms: _348  and  _350
REMARK  126  A    between atoms: _350  and  _351
REMARK  127  A    between atoms: _354  and  _356
REMARK  128  A    between atoms: _356  and  _357
REMARK  129  A    between atoms: _356  and  _359
REMARK  130  A    between atoms: _359  and  _360
REMARK  131  A    between atoms: _365  and  _366
REMARK  132  A    between atoms: _368  and  _370
REMARK  133  A    between atoms: _370  and  _371
REMARK  134  A    between atoms: _370  and  _373
REMARK  135  A    between atoms: _373  and  _374
REMARK  136  A    between atoms: _377  and  _379
REMARK  137  A    between atoms: _379  and  _380
REMARK  138  A    between atoms: _379  and  _382
REMARK  139  A    between atoms: _382  and  _383
REMARK  140  A    between atoms: _383  and  _384
REMARK  141  A    between atoms: _387  and  _389
REMARK  142  A    between atoms: _389  and  _390
REMARK  143  A    between atoms: _389  and  _392
REMARK  144  A    between atoms: _392  and  _393
REMARK  145  A    between atoms: _393  and  _394
REMARK  146  A    between atoms: _394  and  _395
REMARK  147  A    between atoms: _404  and  _406
REMARK  148  A    between atoms: _406  and  _407
REMARK  149  A    between atoms: _409  and  _411
REMARK  150  A    between atoms: _411  and  _412
REMARK  151  A    between atoms: _411  and  _414
REMARK  152  A    between atoms: _414  and  _415
REMARK  153  A    between atoms: _418  and  _420
REMARK  154  A    between atoms: _420  and  _421
REMARK                            x       y       z     vdW  Elec       q    Type
REMARK                         _______ _______ _______ _____ _____    ______ ____
ROOT
ATOM      1  C   THR A   1      33.247  72.296   2.809  0.00  0.00    +0.241 C 
ATOM      2  O   THR A   1      32.743  72.117   3.884  0.00  0.00    -0.274 OA
ATOM      3  N   ALA A   2      34.365  73.013   2.688  0.00  0.00    -0.298 N 
ATOM      4  H   ALA A   2      34.803  73.123   1.751  0.00  0.00    +0.150 HD
ENDROOT
BRANCH   3   5
ATOM      5  CA  ALA A   2      34.988  73.651   3.857  0.00  0.00    +0.137 C 
ATOM      6  CB  ALA A   2      36.513  73.474   3.835  0.00  0.00    +0.030 C 
BRANCH   5   7
ATOM      7  C   ALA A   2      34.614  75.143   3.960  0.00  0.00    +0.227 C 
ATOM      8  O   ALA A   2      34.107  75.704   2.999  0.00  0.00    -0.286 OA
ENDBRANCH   5   7
ENDBRANCH   3   5
BRANCH   1   9
ATOM      9  CA  THR A   1      32.599  71.663   1.551  0.00  0.00    +0.172 C 
BRANCH   9  10
ATOM     10  N   THR A   1      33.526  71.523   0.394  0.00  0.00    -0.236 NA
ATOM     11  H   THR A   1      34.277  70.804   0.419  0.00  0.00    +0.142 HD
ENDBRANCH   9  10
BRANCH   9  12
ATOM     12  CB  THR A   1      31.964  70.284   1.872  0.00  0.00    +0.135 C 
ATOM     13  CG2 THR A   1      31.086  69.832   0.647  0.00  0.00    +0.034 C 
BRANCH  12  14
ATOM     14  OG1 THR A   1      33.014  69.301   2.125  0.00  0.00    -0.383 OA
ATOM     15  HG1 THR A   1      33.588  69.218   1.322  0.00  0.00    +0.210 HD
ENDBRANCH  12  14
ENDBRANCH   9  12
ENDBRANCH   1   9
TORSDOF 6
REMARK  Name = ../refined-set-2016/3d50/3d50_pocket.pdb
REMARK  154 active torsions:
REMARK  status: ('A' for Active; 'I' for Inactive)
REMARK    1  A    between atoms: _1  and  _3
REMARK    2  A    between atoms: _14  and  _17
REMARK    3  A    between atoms: _17  and  _18
REMARK    4  A    between atoms: _25  and  _26
REMARK    5  A    between atoms: _33  and  _34
REMARK    6  A    between atoms: _39  and  _41
REMARK    7  A    between atoms: _41  and  _42
REMARK    8  A    between atoms: _44  and  _46
REMARK    9  A    between atoms: _46  and  _47
REMARK   10  A    between atoms: _46  and  _49
REMARK   11  A    between atoms: _49  and  _50
REMARK   12  A    between atoms: _60  and  _62
REMARK   13  A    between atoms: _62  and  _63
REMARK   14  A    between atoms: _62  and  _65
REMARK   15  A    between atoms: _65  and  _66
REMARK   16  A    between atoms: _69  and  _71
REMARK   17  A    between atoms: _71  and  _72
REMARK   18  A    between atoms: _71  and  _74
REMARK   19  A    between atoms: _74  and  _75
REMARK   20  A    between atoms: _80  and  _81
REMARK   21  A    between atoms: _83  and  _85
REMARK   22  A    between atoms: _85  and  _86
REMARK   23  A    between atoms: _85  and  _88
REMARK   24  A    between atoms: _88  and  _89
REMARK   25  A    between atoms: _89  and  _90
REMARK   26  A    between atoms: _92  and  _94
REMARK   27  A    between atoms: _94  and  _95
REMARK   28  A    between atoms: _94  and  _97
REMARK   29  A    between atoms: _97  and  _98
REMARK   30  A    between atoms: _101  and  _103
REMARK   31  A    between atoms: _103  and  _104
REMARK   32  A    between atoms: _103  and  _106
REMARK   33  A    between atoms: _106  and  _107
REMARK   34  A    between atoms: _107  and  _109
REMARK   35  A    between atoms: _109  and  ZN_423
REMARK   36  A    between atoms: _111  and  _112
REMARK   37  A    between atoms: _117  and  _119
REMARK   38  A    between atoms: _119  and  _120
REMARK   39  A    between atoms: _119  and  _122
REMARK   40  A    between atoms: _122  and  _123
REMARK   41  A    between atoms: _129  and  _131
REMARK   42  A    between atoms: _131  and  _132
REMARK   43  A    between atoms: _131  and  _134
REMARK   44  A    between atoms: _134  and  _135
REMARK   45  A    between atoms: _135  and  _136
REMARK   46  A    between atoms: _136  and  _137
REMARK   47  A    between atoms: _146  and  _148
REMARK   48  A    between atoms: _148  and  _149
REMARK   49  A    between atoms: _148  and  _151
REMARK   50  A    between atoms: _151  and  _152
REMARK   51  A    between atoms: _157  and  _158
REMARK   52  A    between atoms: _160  and  _162
REMARK   53  A    between atoms: _162  and  _163
REMARK   54  A    between atoms: _162  and  _165
REMARK   55  A    between atoms: _165  and  _166
REMARK   56  A    between atoms: _168  and  _170
REMARK   57  A    between atoms: _170  and  _171
REMARK   58  A    between atoms: _170  and  _173
REMARK   59  A    between atoms: _173  and  _174
REMARK   60  A    between atoms: _179  and  _180
REMARK   61  A    between atoms: _182  and  _184
REMARK   62  A    between atoms: _184  and  _185
REMARK   63  A    between atoms: _184  and  _187
REMARK   64  A    between atoms: _187  and  _188
REMARK   65  A    between atoms: _191  and  _193
REMARK   66  A    between atoms: _193  and  _194
REMARK   67  A    between atoms: _193  and  _196
REMARK   68  A    between atoms: _196  and  _197
REMARK   69  A    between atoms: _197  and  _198
REMARK   70  A    between atoms: _198  and  _199
REMARK   71  A    between atoms: _208  and  _210
REMARK   72  A    between atoms: _210  and  _211
REMARK   73  A    between atoms: _210  and  _213
REMARK   74  A    between atoms: _213  and  _214
REMARK   75  A    between atoms: _217  and  _219
REMARK   76  A    between atoms: _219  and  _220
REMARK   77  A    between atoms: _219  and  _222
REMARK   78  A    between atoms: _222  and  _223
REMARK   79  A    between atoms: _226  and  _228
REMARK   80  A    between atoms: _228  and  _229
REMARK   81  A    between atoms: _228  and  _231
REMARK   82  A    between atoms: _231  and  _232
REMARK   83  A    between atoms: _238  and  _240
REMARK   84  A    between atoms: _240  and  _241
REMARK   85  A    between atoms: _240  and  _243
REMARK   86  A    between atoms: _243  and  _244
REMARK   87  A    between atoms: _249  and  _250
REMARK   88  A    between atoms: _252  and  _254
REMARK   89  A    between atoms: _254  and  _255
REMARK   90  A    between atoms: _254  and  _257
REMARK   91  A    between atoms: _257  and  _258
REMARK   92  A    between atoms: _261  and  _263
REMARK   93  A    between atoms: _263  and  _264
REMARK   94  A    between atoms: _263  and  _266
REMARK   95  A    between atoms: _266  and  _267
REMARK   96  A    between atoms: _267  and  _268
REMARK   97  A    between atoms: _268  and  _269
REMARK   98  A    between atoms: _278  and  _280
REMARK   99  A    between atoms: _280  and  _281
REMARK  100  A    between atoms: _280  and  _283
REMARK  101  A    between atoms: _283  and  _284
REMARK  102  A    between atoms: _294  and  _296
REMARK  103  A    between atoms: _296  and  _297
REMARK  104  A    between atoms: _296  and  _299
REMARK  105  A    between atoms: _299  and  _300
REMARK  106  A    between atoms: _305  and  _307
REMARK  107  A    between atoms: _307  and  _308
REMARK  108  A    between atoms: _307  and  _310
REMARK  109  A    between atoms: _310  and  _311
REMARK  110  A    between atoms: _315  and  ZN_423
REMARK  111  A    between atoms: _316  and  _318
REMARK  112  A    between atoms: _318  and  _319
REMARK  113  A    between atoms: _318  and  _321
REMARK  114  A    between atoms: _321  and  _322
REMARK  115  A    between atoms: _325  and  _327
REMARK  116  A    between atoms: _327  and  _328
REMARK  117  A    between atoms: _330  and  _332
REMARK  118  A    between atoms: _332  and  _333
REMARK  119  A    between atoms: _332  and  _335
REMARK  120  A    between atoms: _335  and  _336
REMARK  121  A    between atoms: _339  and  _341
REMARK  122  A    between atoms: _341  and  _342
REMARK  123  A    between atoms: _341  and  _344
REMARK  124  A    between atoms: _344  and  _345
REMARK  125  A    between atoms: _348  and  _350
REMARK  126  A    between atoms: _350  and  _351
REMARK  127  A    between atoms: _354  and  _356
REMARK  128  A    between atoms: _356  and  _357
REMARK  129  A    between atoms: _356  and  _359
REMARK  130  A    between atoms: _359  and  _360
REMARK  131  A    between atoms: _365  and  _366
REMARK  132  A    between atoms: _368  and  _370
REMARK  133  A    between atoms: _370  and  _371
REMARK  134  A    between atoms: _370  and  _373
REMARK  135  A    between atoms: _373  and  _374
REMARK  136  A    between atoms: _377  and  _379
REMARK  137  A    between atoms: _379  and  _380
REMARK  138  A    between atoms: _379  and  _382
REMARK  139  A    between atoms: _382  and  _383
REMARK  140  A    between atoms: _383  and  _384
REMARK  141  A    between atoms: _387  and  _389
REMARK  142  A    between atoms: _389  and  _390
REMARK  143  A    between atoms: _389  and  _392
REMARK  144  A    between atoms: _392  and  _393
REMARK  145  A    between atoms: _393  and  _394
REMARK  146  A    between atoms: _394  and  _395
REMARK  147  A    between atoms: _404  and  _406
REMARK  148  A    between atoms: _406  and  _407
REMARK  149  A    between atoms: _409  and  _411
REMARK  150  A    between atoms: _411  and  _412
REMARK  151  A    between atoms: _411  and  _414
REMARK  152  A    between atoms: _414  and  _415
REMARK  153  A    between atoms: _418  and  _420
REMARK  154  A    between atoms: _420  and  _421
REMARK                            x       y       z     vdW  Elec       q    Type
REMARK                         _______ _______ _______ _____ _____    ______ ____
ROOT
ATOM      1  CG  TYR A   1      27.346  69.334   2.234  0.00  0.00    -0.020 A 
ATOM      2  CD2 TYR A   1      27.251  70.488   3.016  0.00  0.00    -0.001 A 
ATOM      3  CE2 TYR A   1      28.166  70.745   4.062  0.00  0.00    +0.036 A 
ATOM      4  CZ  TYR A   1      29.185  69.827   4.280  0.00  0.00    +0.134 A 
ATOM      5  CE1 TYR A   1      29.306  68.642   3.499  0.00  0.00    +0.036 A 
ATOM      6  CD1 TYR A   1      28.379  68.419   2.499  0.00  0.00    -0.001 A 
ENDROOT
BRANCH   4   7
ATOM      7  OH  TYR A   1      30.043  70.110   5.302  0.00  0.00    -0.506 OA
ATOM      8  HH  TYR A   1      29.994  69.391   5.981  0.00  0.00    +0.292 HD
ENDBRANCH   4   7
BRANCH   1   9
ATOM      9  CB  TYR A   1      26.325  69.036   1.167  0.00  0.00    +0.051 C 
BRANCH   9  10
ATOM     10  CA  TYR A   1      26.613  69.675  -0.189  0.00  0.00    +0.137 C 
BRANCH  10  11
ATOM     11  N   TYR A   1      26.761  71.141  -0.062  0.00  0.00    -0.239 NA
ATOM     12  H   TYR A   1      26.169  71.664   0.614  0.00  0.00    +0.142 HD
ENDBRANCH  10  11
BRANCH  10  13
ATOM     13  C   TYR A   1      25.445  69.338  -1.061  0.00  0.00    +0.224 C 
ATOM     14  O   TYR A   1      25.552  68.520  -1.997  0.00  0.00    -0.287 OA
ENDBRANCH  10  13
ENDBRANCH   9  10
ENDBRANCH   1   9
TORSDOF 5
REMARK  Name = ../refined-set-2016/3d50/3d50_pocket.pdb
REMARK  154 active torsions:
REMARK  status: ('A' for Active; 'I' for Inactive)
REMARK    1  A    between atoms: _1  and  _3
REMARK    2  A    between atoms: _14  and  _17
REMARK    3  A    between atoms: _17  and  _18
REMARK    4  A    between atoms: _25  and  _26
REMARK    5  A    between atoms: _33  and  _34
REMARK    6  A    between atoms: _39  and  _41
REMARK    7  A    between atoms: _41  and  _42
REMARK    8  A    between atoms: _44  and  _46
REMARK    9  A    between atoms: _46  and  _47
REMARK   10  A    between atoms: _46  and  _49
REMARK   11  A    between atoms: _49  and  _50
REMARK   12  A    between atoms: _60  and  _62
REMARK   13  A    between atoms: _62  and  _63
REMARK   14  A    between atoms: _62  and  _65
REMARK   15  A    between atoms: _65  and  _66
REMARK   16  A    between atoms: _69  and  _71
REMARK   17  A    between atoms: _71  and  _72
REMARK   18  A    between atoms: _71  and  _74
REMARK   19  A    between atoms: _74  and  _75
REMARK   20  A    between atoms: _80  and  _81
REMARK   21  A    between atoms: _83  and  _85
REMARK   22  A    between atoms: _85  and  _86
REMARK   23  A    between atoms: _85  and  _88
REMARK   24  A    between atoms: _88  and  _89
REMARK   25  A    between atoms: _89  and  _90
REMARK   26  A    between atoms: _92  and  _94
REMARK   27  A    between atoms: _94  and  _95
REMARK   28  A    between atoms: _94  and  _97
REMARK   29  A    between atoms: _97  and  _98
REMARK   30  A    between atoms: _101  and  _103
REMARK   31  A    between atoms: _103  and  _104
REMARK   32  A    between atoms: _103  and  _106
REMARK   33  A    between atoms: _106  and  _107
REMARK   34  A    between atoms: _107  and  _109
REMARK   35  A    between atoms: _109  and  ZN_423
REMARK   36  A    between atoms: _111  and  _112
REMARK   37  A    between atoms: _117  and  _119
REMARK   38  A    between atoms: _119  and  _120
REMARK   39  A    between atoms: _119  and  _122
REMARK   40  A    between atoms: _122  and  _123
REMARK   41  A    between atoms: _129  and  _131
REMARK   42  A    between atoms: _131  and  _132
REMARK   43  A    between atoms: _131  and  _134
REMARK   44  A    between atoms: _134  and  _135
REMARK   45  A    between atoms: _135  and  _136
REMARK   46  A    between atoms: _136  and  _137
REMARK   47  A    between atoms: _146  and  _148
REMARK   48  A    between atoms: _148  and  _149
REMARK   49  A    between atoms: _148  and  _151
REMARK   50  A    between atoms: _151  and  _152
REMARK   51  A    between atoms: _157  and  _158
REMARK   52  A    between atoms: _160  and  _162
REMARK   53  A    between atoms: _162  and  _163
REMARK   54  A    between atoms: _162  and  _165
REMARK   55  A    between atoms: _165  and  _166
REMARK   56  A    between atoms: _168  and  _170
REMARK   57  A    between atoms: _170  and  _171
REMARK   58  A    between atoms: _170  and  _173
REMARK   59  A    between atoms: _173  and  _174
REMARK   60  A    between atoms: _179  and  _180
REMARK   61  A    between atoms: _182  and  _184
REMARK   62  A    between atoms: _184  and  _185
REMARK   63  A    between atoms: _184  and  _187
REMARK   64  A    between atoms: _187  and  _188
REMARK   65  A    between atoms: _191  and  _193
REMARK   66  A    between atoms: _193  and  _194
REMARK   67  A    between atoms: _193  and  _196
REMARK   68  A    between atoms: _196  and  _197
REMARK   69  A    between atoms: _197  and  _198
REMARK   70  A    between atoms: _198  and  _199
REMARK   71  A    between atoms: _208  and  _210
REMARK   72  A    between atoms: _210  and  _211
REMARK   73  A    between atoms: _210  and  _213
REMARK   74  A    between atoms: _213  and  _214
REMARK   75  A    between atoms: _217  and  _219
REMARK   76  A    between atoms: _219  and  _220
REMARK   77  A    between atoms: _219  and  _222
REMARK   78  A    between atoms: _222  and  _223
REMARK   79  A    between atoms: _226  and  _228
REMARK   80  A    between atoms: _228  and  _229
REMARK   81  A    between atoms: _228  and  _231
REMARK   82  A    between atoms: _231  and  _232
REMARK   83  A    between atoms: _238  and  _240
REMARK   84  A    between atoms: _240  and  _241
REMARK   85  A    between atoms: _240  and  _243
REMARK   86  A    between atoms: _243  and  _244
REMARK   87  A    between atoms: _249  and  _250
REMARK   88  A    between atoms: _252  and  _254
REMARK   89  A    between atoms: _254  and  _255
REMARK   90  A    between atoms: _254  and  _257
REMARK   91  A    between atoms: _257  and  _258
REMARK   92  A    between atoms: _261  and  _263
REMARK   93  A    between atoms: _263  and  _264
REMARK   94  A    between atoms: _263  and  _266
REMARK   95  A    between atoms: _266  and  _267
REMARK   96  A    between atoms: _267  and  _268
REMARK   97  A    between atoms: _268  and  _269
REMARK   98  A    between atoms: _278  and  _280
REMARK   99  A    between atoms: _280  and  _281
REMARK  100  A    between atoms: _280  and  _283
REMARK  101  A    between atoms: _283  and  _284
REMARK  102  A    between atoms: _294  and  _296
REMARK  103  A    between atoms: _296  and  _297
REMARK  104  A    between atoms: _296  and  _299
REMARK  105  A    between atoms: _299  and  _300
REMARK  106  A    between atoms: _305  and  _307
REMARK  107  A    between atoms: _307  and  _308
REMARK  108  A    between atoms: _307  and  _310
REMARK  109  A    between atoms: _310  and  _311
REMARK  110  A    between atoms: _315  and  ZN_423
REMARK  111  A    between atoms: _316  and  _318
REMARK  112  A    between atoms: _318  and  _319
REMARK  113  A    between atoms: _318  and  _321
REMARK  114  A    between atoms: _321  and  _322
REMARK  115  A    between atoms: _325  and  _327
REMARK  116  A    between atoms: _327  and  _328
REMARK  117  A    between atoms: _330  and  _332
REMARK  118  A    between atoms: _332  and  _333
REMARK  119  A    between atoms: _332  and  _335
REMARK  120  A    between atoms: _335  and  _336
REMARK  121  A    between atoms: _339  and  _341
REMARK  122  A    between atoms: _341  and  _342
REMARK  123  A    between atoms: _341  and  _344
REMARK  124  A    between atoms: _344  and  _345
REMARK  125  A    between atoms: _348  and  _350
REMARK  126  A    between atoms: _350  and  _351
REMARK  127  A    between atoms: _354  and  _356
REMARK  128  A    between atoms: _356  and  _357
REMARK  129  A    between atoms: _356  and  _359
REMARK  130  A    between atoms: _359  and  _360
REMARK  131  A    between atoms: _365  and  _366
REMARK  132  A    between atoms: _368  and  _370
REMARK  133  A    between atoms: _370  and  _371
REMARK  134  A    between atoms: _370  and  _373
REMARK  135  A    between atoms: _373  and  _374
REMARK  136  A    between atoms: _377  and  _379
REMARK  137  A    between atoms: _379  and  _380
REMARK  138  A    between atoms: _379  and  _382
REMARK  139  A    between atoms: _382  and  _383
REMARK  140  A    between atoms: _383  and  _384
REMARK  141  A    between atoms: _387  and  _389
REMARK  142  A    between atoms: _389  and  _390
REMARK  143  A    between atoms: _389  and  _392
REMARK  144  A    between atoms: _392  and  _393
REMARK  145  A    between atoms: _393  and  _394
REMARK  146  A    between atoms: _394  and  _395
REMARK  147  A    between atoms: _404  and  _406
REMARK  148  A    between atoms: _406  and  _407
REMARK  149  A    between atoms: _409  and  _411
REMARK  150  A    between atoms: _411  and  _412
REMARK  151  A    between atoms: _411  and  _414
REMARK  152  A    between atoms: _414  and  _415
REMARK  153  A    between atoms: _418  and  _420
REMARK  154  A    between atoms: _420  and  _421
REMARK                            x       y       z     vdW  Elec       q    Type
REMARK                         _______ _______ _______ _____ _____    ______ ____
ROOT
ATOM      1  CA  ARG A   3      25.036  70.090   7.428  0.00  0.00    +0.149 C 
ENDROOT
BRANCH   1   4
ATOM      2  C   GLU A   2      22.885  71.239   7.665  0.00  0.00    +0.241 C 
ATOM      3  O   GLU A   2      22.366  70.272   8.213  0.00  0.00    -0.273 OA
ATOM      4  N   ARG A   3      24.137  71.234   7.225  0.00  0.00    -0.297 N 
ATOM      5  H   ARG A   3      24.494  72.069   6.719  0.00  0.00    +0.150 HD
BRANCH   2   6
ATOM      6  CA  GLU A   2      22.102  72.542   7.464  0.00  0.00    +0.149 C 
BRANCH   6   8
ATOM      7  C   ASP A   1      22.152  72.680   5.016  0.00  0.00    +0.239 C 
ATOM      8  N   GLU A   2      22.402  73.226   6.201  0.00  0.00    -0.297 N 
ATOM      9  H   GLU A   2      22.827  74.175   6.235  0.00  0.00    +0.150 HD
ATOM     10  O   ASP A   1      21.917  71.462   4.851  0.00  0.00    -0.274 OA
BRANCH   7  11
ATOM     11  CA  ASP A   1      22.197  73.660   3.809  0.00  0.00    +0.156 C 
BRANCH  11  12
ATOM     12  N   ASP A   1      23.059  74.820   4.096  0.00  0.00    -0.238 NA
ATOM     13  H   ASP A   1      24.085  74.677   4.191  0.00  0.00    +0.142 HD
ENDBRANCH  11  12
BRANCH  11  14
ATOM     14  CB  ASP A   1      22.599  72.948   2.480  0.00  0.00    +0.140 C 
BRANCH  14  15
ATOM     15  CG  ASP A   1      24.126  72.534   2.435  0.00  0.00    +0.367 C 
ATOM     16  OD2 ASP A   1      24.928  72.870   3.313  0.00  0.00    -0.246 OA
ATOM     17  OD1 ASP A   1      24.501  71.947   1.413  0.00  0.00    -0.246 OA
ENDBRANCH  14  15
ENDBRANCH  11  14
ENDBRANCH   7  11
ENDBRANCH   6   8
BRANCH   6  18
ATOM     18  CB  GLU A   2      20.600  72.262   7.565  0.00  0.00    +0.041 C 
BRANCH  18  19
ATOM     19  CG  GLU A   2      19.808  73.578   7.776  0.00  0.00    +0.116 C 
BRANCH  19  20
ATOM     20  CD  GLU A   2      18.388  73.296   8.182  0.00  0.00    +0.365 C 
ATOM     21  OE2 GLU A   2      18.186  73.054   9.395  0.00  0.00    -0.246 OA
ATOM     22  OE1 GLU A   2      17.486  73.277   7.317  0.00  0.00    -0.246 OA
ENDBRANCH  19  20
ENDBRANCH  18  19
ENDBRANCH   6  18
ENDBRANCH   2   6
ENDBRANCH   1   4
BRANCH   1  23
ATOM     23  C   ARG A   3      26.254  70.469   8.277  0.00  0.00    +0.241 C 
ATOM     24  N   GLY A   4      26.212  71.626   8.959  0.00  0.00    -0.295 N 
ATOM     25  H   GLY A   4      25.398  72.261   8.830  0.00  0.00    +0.150 HD
ATOM     26  O   ARG A   3      27.223  69.707   8.336  0.00  0.00    -0.273 OA
BRANCH  24  27
ATOM     27  CA  GLY A   4      27.286  72.018   9.882  0.00  0.00    +0.176 C 
BRANCH  27  28
ATOM     28  C   GLY A   4      28.276  73.025   9.322  0.00  0.00    +0.243 C 
ATOM     29  O   GLY A   4      29.105  73.584  10.068  0.00  0.00    -0.273 OA
ATOM     30  N   LEU A   5      28.246  73.244   8.008  0.00  0.00    -0.297 N 
ATOM     31  H   LEU A   5      27.559  72.744   7.408  0.00  0.00    +0.150 HD
BRANCH  30  32
ATOM     32  CA  LEU A   5      29.198  74.205   7.411  0.00  0.00    +0.149 C 
BRANCH  32  33
ATOM     33  C   LEU A   5      28.977  75.676   7.883  0.00  0.00    +0.241 C 
ATOM     34  O   LEU A   5      29.931  76.404   8.144  0.00  0.00    -0.273 OA
ATOM     35  N   GLY A   6      27.714  76.034   8.088  0.00  0.00    -0.296 N 
ATOM     36  H   GLY A   6      26.955  75.359   7.865  0.00  0.00    +0.150 HD
BRANCH  35  37
ATOM     37  CA  GLY A   6      27.365  77.335   8.612  0.00  0.00    +0.163 C 
BRANCH  37  38
ATOM     38  C   GLY A   6      27.631  78.483   7.635  0.00  0.00    +0.229 C 
ATOM     39  O   GLY A   6      27.896  79.580   8.076  0.00  0.00    -0.286 OA
ENDBRANCH  37  38
ENDBRANCH  35  37
ENDBRANCH  32  33
BRANCH  32  40
ATOM     40  CB  LEU A   5      29.145  74.115   5.868  0.00  0.00    +0.029 C 
BRANCH  40  41
ATOM     41  CG  LEU A   5      30.041  75.025   5.014  0.00  0.00    +0.002 C 
ATOM     42  CD2 LEU A   5      31.521  74.855   5.479  0.00  0.00    +0.000 C 
ATOM     43  CD1 LEU A   5      29.942  74.674   3.561  0.00  0.00    +0.000 C 
ENDBRANCH  40  41
ENDBRANCH  32  40
ENDBRANCH  30  32
ENDBRANCH  27  28
ENDBRANCH  24  27
ENDBRANCH   1  23
BRANCH   1  44
ATOM     44  CB  ARG A   3      25.434  69.502   6.056  0.00  0.00    +0.033 C 
BRANCH  44  45
ATOM     45  CG  ARG A   3      24.222  68.842   5.203  0.00  0.00    +0.045 C 
BRANCH  45  46
ATOM     46  CD  ARG A   3      23.496  67.798   6.029  0.00  0.00    +0.174 C 
BRANCH  46  47
ATOM     47  NE  ARG A   3      22.443  67.057   5.321  0.00  0.00    -0.265 N 
ATOM     48  CZ  ARG A   3      21.210  67.536   5.111  0.00  0.00    +0.342 C 
ATOM     49  NH2 ARG A   3      20.946  68.819   5.359  0.00  0.00    -0.292 N 
ATOM     50 HH21 ARG A   3      21.697  69.445   5.715  0.00  0.00    +0.255 HD
ATOM     51 HH22 ARG A   3      19.990  69.194   5.197  0.00  0.00    +0.255 HD
ATOM     52  NH1 ARG A   3      20.284  66.773   4.553  0.00  0.00    -0.292 N 
ATOM     53 HH11 ARG A   3      19.328  67.149   4.392  0.00  0.00    +0.255 HD
ATOM     54 HH12 ARG A   3      20.512  65.797   4.276  0.00  0.00    +0.255 HD
ATOM     55  HE  ARG A   3      22.668  66.107   4.963  0.00  0.00    +0.259 HD
ENDBRANCH  46  47
ENDBRANCH  45  46
ENDBRANCH  44  45
ENDBRANCH   1  44
TORSDOF 23
REMARK  Name = ../refined-set-2016/3d50/3d50_pocket.pdb
REMARK  154 active torsions:
REMARK  status: ('A' for Active; 'I' for Inactive)
REMARK    1  A    between atoms: _1  and  _3
REMARK    2  A    between atoms: _14  and  _17
REMARK    3  A    between atoms: _17  and  _18
REMARK    4  A    between atoms: _25  and  _26
REMARK    5  A    between atoms: _33  and  _34
REMARK    6  A    between atoms: _39  and  _41
REMARK    7  A    between atoms: _41  and  _42
REMARK    8  A    between atoms: _44  and  _46
REMARK    9  A    between atoms: _46  and  _47
REMARK   10  A    between atoms: _46  and  _49
REMARK   11  A    between atoms: _49  and  _50
REMARK   12  A    between atoms: _60  and  _62
REMARK   13  A    between atoms: _62  and  _63
REMARK   14  A    between atoms: _62  and  _65
REMARK   15  A    between atoms: _65  and  _66
REMARK   16  A    between atoms: _69  and  _71
REMARK   17  A    between atoms: _71  and  _72
REMARK   18  A    between atoms: _71  and  _74
REMARK   19  A    between atoms: _74  and  _75
REMARK   20  A    between atoms: _80  and  _81
REMARK   21  A    between atoms: _83  and  _85
REMARK   22  A    between atoms: _85  and  _86
REMARK   23  A    between atoms: _85  and  _88
REMARK   24  A    between atoms: _88  and  _89
REMARK   25  A    between atoms: _89  and  _90
REMARK   26  A    between atoms: _92  and  _94
REMARK   27  A    between atoms: _94  and  _95
REMARK   28  A    between atoms: _94  and  _97
REMARK   29  A    between atoms: _97  and  _98
REMARK   30  A    between atoms: _101  and  _103
REMARK   31  A    between atoms: _103  and  _104
REMARK   32  A    between atoms: _103  and  _106
REMARK   33  A    between atoms: _106  and  _107
REMARK   34  A    between atoms: _107  and  _109
REMARK   35  A    between atoms: _109  and  ZN_423
REMARK   36  A    between atoms: _111  and  _112
REMARK   37  A    between atoms: _117  and  _119
REMARK   38  A    between atoms: _119  and  _120
REMARK   39  A    between atoms: _119  and  _122
REMARK   40  A    between atoms: _122  and  _123
REMARK   41  A    between atoms: _129  and  _131
REMARK   42  A    between atoms: _131  and  _132
REMARK   43  A    between atoms: _131  and  _134
REMARK   44  A    between atoms: _134  and  _135
REMARK   45  A    between atoms: _135  and  _136
REMARK   46  A    between atoms: _136  and  _137
REMARK   47  A    between atoms: _146  and  _148
REMARK   48  A    between atoms: _148  and  _149
REMARK   49  A    between atoms: _148  and  _151
REMARK   50  A    between atoms: _151  and  _152
REMARK   51  A    between atoms: _157  and  _158
REMARK   52  A    between atoms: _160  and  _162
REMARK   53  A    between atoms: _162  and  _163
REMARK   54  A    between atoms: _162  and  _165
REMARK   55  A    between atoms: _165  and  _166
REMARK   56  A    between atoms: _168  and  _170
REMARK   57  A    between atoms: _170  and  _171
REMARK   58  A    between atoms: _170  and  _173
REMARK   59  A    between atoms: _173  and  _174
REMARK   60  A    between atoms: _179  and  _180
REMARK   61  A    between atoms: _182  and  _184
REMARK   62  A    between atoms: _184  and  _185
REMARK   63  A    between atoms: _184  and  _187
REMARK   64  A    between atoms: _187  and  _188
REMARK   65  A    between atoms: _191  and  _193
REMARK   66  A    between atoms: _193  and  _194
REMARK   67  A    between atoms: _193  and  _196
REMARK   68  A    between atoms: _196  and  _197
REMARK   69  A    between atoms: _197  and  _198
REMARK   70  A    between atoms: _198  and  _199
REMARK   71  A    between atoms: _208  and  _210
REMARK   72  A    between atoms: _210  and  _211
REMARK   73  A    between atoms: _210  and  _213
REMARK   74  A    between atoms: _213  and  _214
REMARK   75  A    between atoms: _217  and  _219
REMARK   76  A    between atoms: _219  and  _220
REMARK   77  A    between atoms: _219  and  _222
REMARK   78  A    between atoms: _222  and  _223
REMARK   79  A    between atoms: _226  and  _228
REMARK   80  A    between atoms: _228  and  _229
REMARK   81  A    between atoms: _228  and  _231
REMARK   82  A    between atoms: _231  and  _232
REMARK   83  A    between atoms: _238  and  _240
REMARK   84  A    between atoms: _240  and  _241
REMARK   85  A    between atoms: _240  and  _243
REMARK   86  A    between atoms: _243  and  _244
REMARK   87  A    between atoms: _249  and  _250
REMARK   88  A    between atoms: _252  and  _254
REMARK   89  A    between atoms: _254  and  _255
REMARK   90  A    between atoms: _254  and  _257
REMARK   91  A    between atoms: _257  and  _258
REMARK   92  A    between atoms: _261  and  _263
REMARK   93  A    between atoms: _263  and  _264
REMARK   94  A    between atoms: _263  and  _266
REMARK   95  A    between atoms: _266  and  _267
REMARK   96  A    between atoms: _267  and  _268
REMARK   97  A    between atoms: _268  and  _269
REMARK   98  A    between atoms: _278  and  _280
REMARK   99  A    between atoms: _280  and  _281
REMARK  100  A    between atoms: _280  and  _283
REMARK  101  A    between atoms: _283  and  _284
REMARK  102  A    between atoms: _294  and  _296
REMARK  103  A    between atoms: _296  and  _297
REMARK  104  A    between atoms: _296  and  _299
REMARK  105  A    between atoms: _299  and  _300
REMARK  106  A    between atoms: _305  and  _307
REMARK  107  A    between atoms: _307  and  _308
REMARK  108  A    between atoms: _307  and  _310
REMARK  109  A    between atoms: _310  and  _311
REMARK  110  A    between atoms: _315  and  ZN_423
REMARK  111  A    between atoms: _316  and  _318
REMARK  112  A    between atoms: _318  and  _319
REMARK  113  A    between atoms: _318  and  _321
REMARK  114  A    between atoms: _321  and  _322
REMARK  115  A    between atoms: _325  and  _327
REMARK  116  A    between atoms: _327  and  _328
REMARK  117  A    between atoms: _330  and  _332
REMARK  118  A    between atoms: _332  and  _333
REMARK  119  A    between atoms: _332  and  _335
REMARK  120  A    between atoms: _335  and  _336
REMARK  121  A    between atoms: _339  and  _341
REMARK  122  A    between atoms: _341  and  _342
REMARK  123  A    between atoms: _341  and  _344
REMARK  124  A    between atoms: _344  and  _345
REMARK  125  A    between atoms: _348  and  _350
REMARK  126  A    between atoms: _350  and  _351
REMARK  127  A    between atoms: _354  and  _356
REMARK  128  A    between atoms: _356  and  _357
REMARK  129  A    between atoms: _356  and  _359
REMARK  130  A    between atoms: _359  and  _360
REMARK  131  A    between atoms: _365  and  _366
REMARK  132  A    between atoms: _368  and  _370
REMARK  133  A    between atoms: _370  and  _371
REMARK  134  A    between atoms: _370  and  _373
REMARK  135  A    between atoms: _373  and  _374
REMARK  136  A    between atoms: _377  and  _379
REMARK  137  A    between atoms: _379  and  _380
REMARK  138  A    between atoms: _379  and  _382
REMARK  139  A    between atoms: _382  and  _383
REMARK  140  A    between atoms: _383  and  _384
REMARK  141  A    between atoms: _387  and  _389
REMARK  142  A    between atoms: _389  and  _390
REMARK  143  A    between atoms: _389  and  _392
REMARK  144  A    between atoms: _392  and  _393
REMARK  145  A    between atoms: _393  and  _394
REMARK  146  A    between atoms: _394  and  _395
REMARK  147  A    between atoms: _404  and  _406
REMARK  148  A    between atoms: _406  and  _407
REMARK  149  A    between atoms: _409  and  _411
REMARK  150  A    between atoms: _411  and  _412
REMARK  151  A    between atoms: _411  and  _414
REMARK  152  A    between atoms: _414  and  _415
REMARK  153  A    between atoms: _418  and  _420
REMARK  154  A    between atoms: _420  and  _421
REMARK                            x       y       z     vdW  Elec       q    Type
REMARK                         _______ _______ _______ _____ _____    ______ ____
ROOT
ATOM      1  O   HOH     1      26.602  59.391   8.074  0.00  0.00    +0.000 OA
ENDROOT
TORSDOF 0
REMARK  Name = ../refined-set-2016/3d50/3d50_pocket.pdb
REMARK  154 active torsions:
REMARK  status: ('A' for Active; 'I' for Inactive)
REMARK    1  A    between atoms: _1  and  _3
REMARK    2  A    between atoms: _14  and  _17
REMARK    3  A    between atoms: _17  and  _18
REMARK    4  A    between atoms: _25  and  _26
REMARK    5  A    between atoms: _33  and  _34
REMARK    6  A    between atoms: _39  and  _41
REMARK    7  A    between atoms: _41  and  _42
REMARK    8  A    between atoms: _44  and  _46
REMARK    9  A    between atoms: _46  and  _47
REMARK   10  A    between atoms: _46  and  _49
REMARK   11  A    between atoms: _49  and  _50
REMARK   12  A    between atoms: _60  and  _62
REMARK   13  A    between atoms: _62  and  _63
REMARK   14  A    between atoms: _62  and  _65
REMARK   15  A    between atoms: _65  and  _66
REMARK   16  A    between atoms: _69  and  _71
REMARK   17  A    between atoms: _71  and  _72
REMARK   18  A    between atoms: _71  and  _74
REMARK   19  A    between atoms: _74  and  _75
REMARK   20  A    between atoms: _80  and  _81
REMARK   21  A    between atoms: _83  and  _85
REMARK   22  A    between atoms: _85  and  _86
REMARK   23  A    between atoms: _85  and  _88
REMARK   24  A    between atoms: _88  and  _89
REMARK   25  A    between atoms: _89  and  _90
REMARK   26  A    between atoms: _92  and  _94
REMARK   27  A    between atoms: _94  and  _95
REMARK   28  A    between atoms: _94  and  _97
REMARK   29  A    between atoms: _97  and  _98
REMARK   30  A    between atoms: _101  and  _103
REMARK   31  A    between atoms: _103  and  _104
REMARK   32  A    between atoms: _103  and  _106
REMARK   33  A    between atoms: _106  and  _107
REMARK   34  A    between atoms: _107  and  _109
REMARK   35  A    between atoms: _109  and  ZN_423
REMARK   36  A    between atoms: _111  and  _112
REMARK   37  A    between atoms: _117  and  _119
REMARK   38  A    between atoms: _119  and  _120
REMARK   39  A    between atoms: _119  and  _122
REMARK   40  A    between atoms: _122  and  _123
REMARK   41  A    between atoms: _129  and  _131
REMARK   42  A    between atoms: _131  and  _132
REMARK   43  A    between atoms: _131  and  _134
REMARK   44  A    between atoms: _134  and  _135
REMARK   45  A    between atoms: _135  and  _136
REMARK   46  A    between atoms: _136  and  _137
REMARK   47  A    between atoms: _146  and  _148
REMARK   48  A    between atoms: _148  and  _149
REMARK   49  A    between atoms: _148  and  _151
REMARK   50  A    between atoms: _151  and  _152
REMARK   51  A    between atoms: _157  and  _158
REMARK   52  A    between atoms: _160  and  _162
REMARK   53  A    between atoms: _162  and  _163
REMARK   54  A    between atoms: _162  and  _165
REMARK   55  A    between atoms: _165  and  _166
REMARK   56  A    between atoms: _168  and  _170
REMARK   57  A    between atoms: _170  and  _171
REMARK   58  A    between atoms: _170  and  _173
REMARK   59  A    between atoms: _173  and  _174
REMARK   60  A    between atoms: _179  and  _180
REMARK   61  A    between atoms: _182  and  _184
REMARK   62  A    between atoms: _184  and  _185
REMARK   63  A    between atoms: _184  and  _187
REMARK   64  A    between atoms: _187  and  _188
REMARK   65  A    between atoms: _191  and  _193
REMARK   66  A    between atoms: _193  and  _194
REMARK   67  A    between atoms: _193  and  _196
REMARK   68  A    between atoms: _196  and  _197
REMARK   69  A    between atoms: _197  and  _198
REMARK   70  A    between atoms: _198  and  _199
REMARK   71  A    between atoms: _208  and  _210
REMARK   72  A    between atoms: _210  and  _211
REMARK   73  A    between atoms: _210  and  _213
REMARK   74  A    between atoms: _213  and  _214
REMARK   75  A    between atoms: _217  and  _219
REMARK   76  A    between atoms: _219  and  _220
REMARK   77  A    between atoms: _219  and  _222
REMARK   78  A    between atoms: _222  and  _223
REMARK   79  A    between atoms: _226  and  _228
REMARK   80  A    between atoms: _228  and  _229
REMARK   81  A    between atoms: _228  and  _231
REMARK   82  A    between atoms: _231  and  _232
REMARK   83  A    between atoms: _238  and  _240
REMARK   84  A    between atoms: _240  and  _241
REMARK   85  A    between atoms: _240  and  _243
REMARK   86  A    between atoms: _243  and  _244
REMARK   87  A    between atoms: _249  and  _250
REMARK   88  A    between atoms: _252  and  _254
REMARK   89  A    between atoms: _254  and  _255
REMARK   90  A    between atoms: _254  and  _257
REMARK   91  A    between atoms: _257  and  _258
REMARK   92  A    between atoms: _261  and  _263
REMARK   93  A    between atoms: _263  and  _264
REMARK   94  A    between atoms: _263  and  _266
REMARK   95  A    between atoms: _266  and  _267
REMARK   96  A    between atoms: _267  and  _268
REMARK   97  A    between atoms: _268  and  _269
REMARK   98  A    between atoms: _278  and  _280
REMARK   99  A    between atoms: _280  and  _281
REMARK  100  A    between atoms: _280  and  _283
REMARK  101  A    between atoms: _283  and  _284
REMARK  102  A    between atoms: _294  and  _296
REMARK  103  A    between atoms: _296  and  _297
REMARK  104  A    between atoms: _296  and  _299
REMARK  105  A    between atoms: _299  and  _300
REMARK  106  A    between atoms: _305  and  _307
REMARK  107  A    between atoms: _307  and  _308
REMARK  108  A    between atoms: _307  and  _310
REMARK  109  A    between atoms: _310  and  _311
REMARK  110  A    between atoms: _315  and  ZN_423
REMARK  111  A    between atoms: _316  and  _318
REMARK  112  A    between atoms: _318  and  _319
REMARK  113  A    between atoms: _318  and  _321
REMARK  114  A    between atoms: _321  and  _322
REMARK  115  A    between atoms: _325  and  _327
REMARK  116  A    between atoms: _327  and  _328
REMARK  117  A    between atoms: _330  and  _332
REMARK  118  A    between atoms: _332  and  _333
REMARK  119  A    between atoms: _332  and  _335
REMARK  120  A    between atoms: _335  and  _336
REMARK  121  A    between atoms: _339  and  _341
REMARK  122  A    between atoms: _341  and  _342
REMARK  123  A    between atoms: _341  and  _344
REMARK  124  A    between atoms: _344  and  _345
REMARK  125  A    between atoms: _348  and  _350
REMARK  126  A    between atoms: _350  and  _351
REMARK  127  A    between atoms: _354  and  _356
REMARK  128  A    between atoms: _356  and  _357
REMARK  129  A    between atoms: _356  and  _359
REMARK  130  A    between atoms: _359  and  _360
REMARK  131  A    between atoms: _365  and  _366
REMARK  132  A    between atoms: _368  and  _370
REMARK  133  A    between atoms: _370  and  _371
REMARK  134  A    between atoms: _370  and  _373
REMARK  135  A    between atoms: _373  and  _374
REMARK  136  A    between atoms: _377  and  _379
REMARK  137  A    between atoms: _379  and  _380
REMARK  138  A    between atoms: _379  and  _382
REMARK  139  A    between atoms: _382  and  _383
REMARK  140  A    between atoms: _383  and  _384
REMARK  141  A    between atoms: _387  and  _389
REMARK  142  A    between atoms: _389  and  _390
REMARK  143  A    between atoms: _389  and  _392
REMARK  144  A    between atoms: _392  and  _393
REMARK  145  A    between atoms: _393  and  _394
REMARK  146  A    between atoms: _394  and  _395
REMARK  147  A    between atoms: _404  and  _406
REMARK  148  A    between atoms: _406  and  _407
REMARK  149  A    between atoms: _409  and  _411
REMARK  150  A    between atoms: _411  and  _412
REMARK  151  A    between atoms: _411  and  _414
REMARK  152  A    between atoms: _414  and  _415
REMARK  153  A    between atoms: _418  and  _420
REMARK  154  A    between atoms: _420  and  _421
REMARK                            x       y       z     vdW  Elec       q    Type
REMARK                         _______ _______ _______ _____ _____    ______ ____
ROOT
ATOM      1  O   HOH     1      29.067  59.862   8.245  0.00  0.00    +0.000 OA
ENDROOT
TORSDOF 0
REMARK  Name = ../refined-set-2016/3d50/3d50_pocket.pdb
REMARK  154 active torsions:
REMARK  status: ('A' for Active; 'I' for Inactive)
REMARK    1  A    between atoms: _1  and  _3
REMARK    2  A    between atoms: _14  and  _17
REMARK    3  A    between atoms: _17  and  _18
REMARK    4  A    between atoms: _25  and  _26
REMARK    5  A    between atoms: _33  and  _34
REMARK    6  A    between atoms: _39  and  _41
REMARK    7  A    between atoms: _41  and  _42
REMARK    8  A    between atoms: _44  and  _46
REMARK    9  A    between atoms: _46  and  _47
REMARK   10  A    between atoms: _46  and  _49
REMARK   11  A    between atoms: _49  and  _50
REMARK   12  A    between atoms: _60  and  _62
REMARK   13  A    between atoms: _62  and  _63
REMARK   14  A    between atoms: _62  and  _65
REMARK   15  A    between atoms: _65  and  _66
REMARK   16  A    between atoms: _69  and  _71
REMARK   17  A    between atoms: _71  and  _72
REMARK   18  A    between atoms: _71  and  _74
REMARK   19  A    between atoms: _74  and  _75
REMARK   20  A    between atoms: _80  and  _81
REMARK   21  A    between atoms: _83  and  _85
REMARK   22  A    between atoms: _85  and  _86
REMARK   23  A    between atoms: _85  and  _88
REMARK   24  A    between atoms: _88  and  _89
REMARK   25  A    between atoms: _89  and  _90
REMARK   26  A    between atoms: _92  and  _94
REMARK   27  A    between atoms: _94  and  _95
REMARK   28  A    between atoms: _94  and  _97
REMARK   29  A    between atoms: _97  and  _98
REMARK   30  A    between atoms: _101  and  _103
REMARK   31  A    between atoms: _103  and  _104
REMARK   32  A    between atoms: _103  and  _106
REMARK   33  A    between atoms: _106  and  _107
REMARK   34  A    between atoms: _107  and  _109
REMARK   35  A    between atoms: _109  and  ZN_423
REMARK   36  A    between atoms: _111  and  _112
REMARK   37  A    between atoms: _117  and  _119
REMARK   38  A    between atoms: _119  and  _120
REMARK   39  A    between atoms: _119  and  _122
REMARK   40  A    between atoms: _122  and  _123
REMARK   41  A    between atoms: _129  and  _131
REMARK   42  A    between atoms: _131  and  _132
REMARK   43  A    between atoms: _131  and  _134
REMARK   44  A    between atoms: _134  and  _135
REMARK   45  A    between atoms: _135  and  _136
REMARK   46  A    between atoms: _136  and  _137
REMARK   47  A    between atoms: _146  and  _148
REMARK   48  A    between atoms: _148  and  _149
REMARK   49  A    between atoms: _148  and  _151
REMARK   50  A    between atoms: _151  and  _152
REMARK   51  A    between atoms: _157  and  _158
REMARK   52  A    between atoms: _160  and  _162
REMARK   53  A    between atoms: _162  and  _163
REMARK   54  A    between atoms: _162  and  _165
REMARK   55  A    between atoms: _165  and  _166
REMARK   56  A    between atoms: _168  and  _170
REMARK   57  A    between atoms: _170  and  _171
REMARK   58  A    between atoms: _170  and  _173
REMARK   59  A    between atoms: _173  and  _174
REMARK   60  A    between atoms: _179  and  _180
REMARK   61  A    between atoms: _182  and  _184
REMARK   62  A    between atoms: _184  and  _185
REMARK   63  A    between atoms: _184  and  _187
REMARK   64  A    between atoms: _187  and  _188
REMARK   65  A    between atoms: _191  and  _193
REMARK   66  A    between atoms: _193  and  _194
REMARK   67  A    between atoms: _193  and  _196
REMARK   68  A    between atoms: _196  and  _197
REMARK   69  A    between atoms: _197  and  _198
REMARK   70  A    between atoms: _198  and  _199
REMARK   71  A    between atoms: _208  and  _210
REMARK   72  A    between atoms: _210  and  _211
REMARK   73  A    between atoms: _210  and  _213
REMARK   74  A    between atoms: _213  and  _214
REMARK   75  A    between atoms: _217  and  _219
REMARK   76  A    between atoms: _219  and  _220
REMARK   77  A    between atoms: _219  and  _222
REMARK   78  A    between atoms: _222  and  _223
REMARK   79  A    between atoms: _226  and  _228
REMARK   80  A    between atoms: _228  and  _229
REMARK   81  A    between atoms: _228  and  _231
REMARK   82  A    between atoms: _231  and  _232
REMARK   83  A    between atoms: _238  and  _240
REMARK   84  A    between atoms: _240  and  _241
REMARK   85  A    between atoms: _240  and  _243
REMARK   86  A    between atoms: _243  and  _244
REMARK   87  A    between atoms: _249  and  _250
REMARK   88  A    between atoms: _252  and  _254
REMARK   89  A    between atoms: _254  and  _255
REMARK   90  A    between atoms: _254  and  _257
REMARK   91  A    between atoms: _257  and  _258
REMARK   92  A    between atoms: _261  and  _263
REMARK   93  A    between atoms: _263  and  _264
REMARK   94  A    between atoms: _263  and  _266
REMARK   95  A    between atoms: _266  and  _267
REMARK   96  A    between atoms: _267  and  _268
REMARK   97  A    between atoms: _268  and  _269
REMARK   98  A    between atoms: _278  and  _280
REMARK   99  A    between atoms: _280  and  _281
REMARK  100  A    between atoms: _280  and  _283
REMARK  101  A    between atoms: _283  and  _284
REMARK  102  A    between atoms: _294  and  _296
REMARK  103  A    between atoms: _296  and  _297
REMARK  104  A    between atoms: _296  and  _299
REMARK  105  A    between atoms: _299  and  _300
REMARK  106  A    between atoms: _305  and  _307
REMARK  107  A    between atoms: _307  and  _308
REMARK  108  A    between atoms: _307  and  _310
REMARK  109  A    between atoms: _310  and  _311
REMARK  110  A    between atoms: _315  and  ZN_423
REMARK  111  A    between atoms: _316  and  _318
REMARK  112  A    between atoms: _318  and  _319
REMARK  113  A    between atoms: _318  and  _321
REMARK  114  A    between atoms: _321  and  _322
REMARK  115  A    between atoms: _325  and  _327
REMARK  116  A    between atoms: _327  and  _328
REMARK  117  A    between atoms: _330  and  _332
REMARK  118  A    between atoms: _332  and  _333
REMARK  119  A    between atoms: _332  and  _335
REMARK  120  A    between atoms: _335  and  _336
REMARK  121  A    between atoms: _339  and  _341
REMARK  122  A    between atoms: _341  and  _342
REMARK  123  A    between atoms: _341  and  _344
REMARK  124  A    between atoms: _344  and  _345
REMARK  125  A    between atoms: _348  and  _350
REMARK  126  A    between atoms: _350  and  _351
REMARK  127  A    between atoms: _354  and  _356
REMARK  128  A    between atoms: _356  and  _357
REMARK  129  A    between atoms: _356  and  _359
REMARK  130  A    between atoms: _359  and  _360
REMARK  131  A    between atoms: _365  and  _366
REMARK  132  A    between atoms: _368  and  _370
REMARK  133  A    between atoms: _370  and  _371
REMARK  134  A    between atoms: _370  and  _373
REMARK  135  A    between atoms: _373  and  _374
REMARK  136  A    between atoms: _377  and  _379
REMARK  137  A    between atoms: _379  and  _380
REMARK  138  A    between atoms: _379  and  _382
REMARK  139  A    between atoms: _382  and  _383
REMARK  140  A    between atoms: _383  and  _384
REMARK  141  A    between atoms: _387  and  _389
REMARK  142  A    between atoms: _389  and  _390
REMARK  143  A    between atoms: _389  and  _392
REMARK  144  A    between atoms: _392  and  _393
REMARK  145  A    between atoms: _393  and  _394
REMARK  146  A    between atoms: _394  and  _395
REMARK  147  A    between atoms: _404  and  _406
REMARK  148  A    between atoms: _406  and  _407
REMARK  149  A    between atoms: _409  and  _411
REMARK  150  A    between atoms: _411  and  _412
REMARK  151  A    between atoms: _411  and  _414
REMARK  152  A    between atoms: _414  and  _415
REMARK  153  A    between atoms: _418  and  _420
REMARK  154  A    between atoms: _420  and  _421
REMARK                            x       y       z     vdW  Elec       q    Type
REMARK                         _______ _______ _______ _____ _____    ______ ____
ROOT
ATOM      1  O   HOH     1      27.692  60.673  10.637  0.00  0.00    +0.000 OA
ENDROOT
TORSDOF 0
REMARK  Name = ../refined-set-2016/3d50/3d50_pocket.pdb
REMARK  154 active torsions:
REMARK  status: ('A' for Active; 'I' for Inactive)
REMARK    1  A    between atoms: _1  and  _3
REMARK    2  A    between atoms: _14  and  _17
REMARK    3  A    between atoms: _17  and  _18
REMARK    4  A    between atoms: _25  and  _26
REMARK    5  A    between atoms: _33  and  _34
REMARK    6  A    between atoms: _39  and  _41
REMARK    7  A    between atoms: _41  and  _42
REMARK    8  A    between atoms: _44  and  _46
REMARK    9  A    between atoms: _46  and  _47
REMARK   10  A    between atoms: _46  and  _49
REMARK   11  A    between atoms: _49  and  _50
REMARK   12  A    between atoms: _60  and  _62
REMARK   13  A    between atoms: _62  and  _63
REMARK   14  A    between atoms: _62  and  _65
REMARK   15  A    between atoms: _65  and  _66
REMARK   16  A    between atoms: _69  and  _71
REMARK   17  A    between atoms: _71  and  _72
REMARK   18  A    between atoms: _71  and  _74
REMARK   19  A    between atoms: _74  and  _75
REMARK   20  A    between atoms: _80  and  _81
REMARK   21  A    between atoms: _83  and  _85
REMARK   22  A    between atoms: _85  and  _86
REMARK   23  A    between atoms: _85  and  _88
REMARK   24  A    between atoms: _88  and  _89
REMARK   25  A    between atoms: _89  and  _90
REMARK   26  A    between atoms: _92  and  _94
REMARK   27  A    between atoms: _94  and  _95
REMARK   28  A    between atoms: _94  and  _97
REMARK   29  A    between atoms: _97  and  _98
REMARK   30  A    between atoms: _101  and  _103
REMARK   31  A    between atoms: _103  and  _104
REMARK   32  A    between atoms: _103  and  _106
REMARK   33  A    between atoms: _106  and  _107
REMARK   34  A    between atoms: _107  and  _109
REMARK   35  A    between atoms: _109  and  ZN_423
REMARK   36  A    between atoms: _111  and  _112
REMARK   37  A    between atoms: _117  and  _119
REMARK   38  A    between atoms: _119  and  _120
REMARK   39  A    between atoms: _119  and  _122
REMARK   40  A    between atoms: _122  and  _123
REMARK   41  A    between atoms: _129  and  _131
REMARK   42  A    between atoms: _131  and  _132
REMARK   43  A    between atoms: _131  and  _134
REMARK   44  A    between atoms: _134  and  _135
REMARK   45  A    between atoms: _135  and  _136
REMARK   46  A    between atoms: _136  and  _137
REMARK   47  A    between atoms: _146  and  _148
REMARK   48  A    between atoms: _148  and  _149
REMARK   49  A    between atoms: _148  and  _151
REMARK   50  A    between atoms: _151  and  _152
REMARK   51  A    between atoms: _157  and  _158
REMARK   52  A    between atoms: _160  and  _162
REMARK   53  A    between atoms: _162  and  _163
REMARK   54  A    between atoms: _162  and  _165
REMARK   55  A    between atoms: _165  and  _166
REMARK   56  A    between atoms: _168  and  _170
REMARK   57  A    between atoms: _170  and  _171
REMARK   58  A    between atoms: _170  and  _173
REMARK   59  A    between atoms: _173  and  _174
REMARK   60  A    between atoms: _179  and  _180
REMARK   61  A    between atoms: _182  and  _184
REMARK   62  A    between atoms: _184  and  _185
REMARK   63  A    between atoms: _184  and  _187
REMARK   64  A    between atoms: _187  and  _188
REMARK   65  A    between atoms: _191  and  _193
REMARK   66  A    between atoms: _193  and  _194
REMARK   67  A    between atoms: _193  and  _196
REMARK   68  A    between atoms: _196  and  _197
REMARK   69  A    between atoms: _197  and  _198
REMARK   70  A    between atoms: _198  and  _199
REMARK   71  A    between atoms: _208  and  _210
REMARK   72  A    between atoms: _210  and  _211
REMARK   73  A    between atoms: _210  and  _213
REMARK   74  A    between atoms: _213  and  _214
REMARK   75  A    between atoms: _217  and  _219
REMARK   76  A    between atoms: _219  and  _220
REMARK   77  A    between atoms: _219  and  _222
REMARK   78  A    between atoms: _222  and  _223
REMARK   79  A    between atoms: _226  and  _228
REMARK   80  A    between atoms: _228  and  _229
REMARK   81  A    between atoms: _228  and  _231
REMARK   82  A    between atoms: _231  and  _232
REMARK   83  A    between atoms: _238  and  _240
REMARK   84  A    between atoms: _240  and  _241
REMARK   85  A    between atoms: _240  and  _243
REMARK   86  A    between atoms: _243  and  _244
REMARK   87  A    between atoms: _249  and  _250
REMARK   88  A    between atoms: _252  and  _254
REMARK   89  A    between atoms: _254  and  _255
REMARK   90  A    between atoms: _254  and  _257
REMARK   91  A    between atoms: _257  and  _258
REMARK   92  A    between atoms: _261  and  _263
REMARK   93  A    between atoms: _263  and  _264
REMARK   94  A    between atoms: _263  and  _266
REMARK   95  A    between atoms: _266  and  _267
REMARK   96  A    between atoms: _267  and  _268
REMARK   97  A    between atoms: _268  and  _269
REMARK   98  A    between atoms: _278  and  _280
REMARK   99  A    between atoms: _280  and  _281
REMARK  100  A    between atoms: _280  and  _283
REMARK  101  A    between atoms: _283  and  _284
REMARK  102  A    between atoms: _294  and  _296
REMARK  103  A    between atoms: _296  and  _297
REMARK  104  A    between atoms: _296  and  _299
REMARK  105  A    between atoms: _299  and  _300
REMARK  106  A    between atoms: _305  and  _307
REMARK  107  A    between atoms: _307  and  _308
REMARK  108  A    between atoms: _307  and  _310
REMARK  109  A    between atoms: _310  and  _311
REMARK  110  A    between atoms: _315  and  ZN_423
REMARK  111  A    between atoms: _316  and  _318
REMARK  112  A    between atoms: _318  and  _319
REMARK  113  A    between atoms: _318  and  _321
REMARK  114  A    between atoms: _321  and  _322
REMARK  115  A    between atoms: _325  and  _327
REMARK  116  A    between atoms: _327  and  _328
REMARK  117  A    between atoms: _330  and  _332
REMARK  118  A    between atoms: _332  and  _333
REMARK  119  A    between atoms: _332  and  _335
REMARK  120  A    between atoms: _335  and  _336
REMARK  121  A    between atoms: _339  and  _341
REMARK  122  A    between atoms: _341  and  _342
REMARK  123  A    between atoms: _341  and  _344
REMARK  124  A    between atoms: _344  and  _345
REMARK  125  A    between atoms: _348  and  _350
REMARK  126  A    between atoms: _350  and  _351
REMARK  127  A    between atoms: _354  and  _356
REMARK  128  A    between atoms: _356  and  _357
REMARK  129  A    between atoms: _356  and  _359
REMARK  130  A    between atoms: _359  and  _360
REMARK  131  A    between atoms: _365  and  _366
REMARK  132  A    between atoms: _368  and  _370
REMARK  133  A    between atoms: _370  and  _371
REMARK  134  A    between atoms: _370  and  _373
REMARK  135  A    between atoms: _373  and  _374
REMARK  136  A    between atoms: _377  and  _379
REMARK  137  A    between atoms: _379  and  _380
REMARK  138  A    between atoms: _379  and  _382
REMARK  139  A    between atoms: _382  and  _383
REMARK  140  A    between atoms: _383  and  _384
REMARK  141  A    between atoms: _387  and  _389
REMARK  142  A    between atoms: _389  and  _390
REMARK  143  A    between atoms: _389  and  _392
REMARK  144  A    between atoms: _392  and  _393
REMARK  145  A    between atoms: _393  and  _394
REMARK  146  A    between atoms: _394  and  _395
REMARK  147  A    between atoms: _404  and  _406
REMARK  148  A    between atoms: _406  and  _407
REMARK  149  A    between atoms: _409  and  _411
REMARK  150  A    between atoms: _411  and  _412
REMARK  151  A    between atoms: _411  and  _414
REMARK  152  A    between atoms: _414  and  _415
REMARK  153  A    between atoms: _418  and  _420
REMARK  154  A    between atoms: _420  and  _421
REMARK                            x       y       z     vdW  Elec       q    Type
REMARK                         _______ _______ _______ _____ _____    ______ ____
ROOT
ATOM      1  O   HOH     1      25.550  63.013  11.332  0.00  0.00    +0.000 OA
ENDROOT
TORSDOF 0
REMARK  Name = ../refined-set-2016/3d50/3d50_pocket.pdb
REMARK  154 active torsions:
REMARK  status: ('A' for Active; 'I' for Inactive)
REMARK    1  A    between atoms: _1  and  _3
REMARK    2  A    between atoms: _14  and  _17
REMARK    3  A    between atoms: _17  and  _18
REMARK    4  A    between atoms: _25  and  _26
REMARK    5  A    between atoms: _33  and  _34
REMARK    6  A    between atoms: _39  and  _41
REMARK    7  A    between atoms: _41  and  _42
REMARK    8  A    between atoms: _44  and  _46
REMARK    9  A    between atoms: _46  and  _47
REMARK   10  A    between atoms: _46  and  _49
REMARK   11  A    between atoms: _49  and  _50
REMARK   12  A    between atoms: _60  and  _62
REMARK   13  A    between atoms: _62  and  _63
REMARK   14  A    between atoms: _62  and  _65
REMARK   15  A    between atoms: _65  and  _66
REMARK   16  A    between atoms: _69  and  _71
REMARK   17  A    between atoms: _71  and  _72
REMARK   18  A    between atoms: _71  and  _74
REMARK   19  A    between atoms: _74  and  _75
REMARK   20  A    between atoms: _80  and  _81
REMARK   21  A    between atoms: _83  and  _85
REMARK   22  A    between atoms: _85  and  _86
REMARK   23  A    between atoms: _85  and  _88
REMARK   24  A    between atoms: _88  and  _89
REMARK   25  A    between atoms: _89  and  _90
REMARK   26  A    between atoms: _92  and  _94
REMARK   27  A    between atoms: _94  and  _95
REMARK   28  A    between atoms: _94  and  _97
REMARK   29  A    between atoms: _97  and  _98
REMARK   30  A    between atoms: _101  and  _103
REMARK   31  A    between atoms: _103  and  _104
REMARK   32  A    between atoms: _103  and  _106
REMARK   33  A    between atoms: _106  and  _107
REMARK   34  A    between atoms: _107  and  _109
REMARK   35  A    between atoms: _109  and  ZN_423
REMARK   36  A    between atoms: _111  and  _112
REMARK   37  A    between atoms: _117  and  _119
REMARK   38  A    between atoms: _119  and  _120
REMARK   39  A    between atoms: _119  and  _122
REMARK   40  A    between atoms: _122  and  _123
REMARK   41  A    between atoms: _129  and  _131
REMARK   42  A    between atoms: _131  and  _132
REMARK   43  A    between atoms: _131  and  _134
REMARK   44  A    between atoms: _134  and  _135
REMARK   45  A    between atoms: _135  and  _136
REMARK   46  A    between atoms: _136  and  _137
REMARK   47  A    between atoms: _146  and  _148
REMARK   48  A    between atoms: _148  and  _149
REMARK   49  A    between atoms: _148  and  _151
REMARK   50  A    between atoms: _151  and  _152
REMARK   51  A    between atoms: _157  and  _158
REMARK   52  A    between atoms: _160  and  _162
REMARK   53  A    between atoms: _162  and  _163
REMARK   54  A    between atoms: _162  and  _165
REMARK   55  A    between atoms: _165  and  _166
REMARK   56  A    between atoms: _168  and  _170
REMARK   57  A    between atoms: _170  and  _171
REMARK   58  A    between atoms: _170  and  _173
REMARK   59  A    between atoms: _173  and  _174
REMARK   60  A    between atoms: _179  and  _180
REMARK   61  A    between atoms: _182  and  _184
REMARK   62  A    between atoms: _184  and  _185
REMARK   63  A    between atoms: _184  and  _187
REMARK   64  A    between atoms: _187  and  _188
REMARK   65  A    between atoms: _191  and  _193
REMARK   66  A    between atoms: _193  and  _194
REMARK   67  A    between atoms: _193  and  _196
REMARK   68  A    between atoms: _196  and  _197
REMARK   69  A    between atoms: _197  and  _198
REMARK   70  A    between atoms: _198  and  _199
REMARK   71  A    between atoms: _208  and  _210
REMARK   72  A    between atoms: _210  and  _211
REMARK   73  A    between atoms: _210  and  _213
REMARK   74  A    between atoms: _213  and  _214
REMARK   75  A    between atoms: _217  and  _219
REMARK   76  A    between atoms: _219  and  _220
REMARK   77  A    between atoms: _219  and  _222
REMARK   78  A    between atoms: _222  and  _223
REMARK   79  A    between atoms: _226  and  _228
REMARK   80  A    between atoms: _228  and  _229
REMARK   81  A    between atoms: _228  and  _231
REMARK   82  A    between atoms: _231  and  _232
REMARK   83  A    between atoms: _238  and  _240
REMARK   84  A    between atoms: _240  and  _241
REMARK   85  A    between atoms: _240  and  _243
REMARK   86  A    between atoms: _243  and  _244
REMARK   87  A    between atoms: _249  and  _250
REMARK   88  A    between atoms: _252  and  _254
REMARK   89  A    between atoms: _254  and  _255
REMARK   90  A    between atoms: _254  and  _257
REMARK   91  A    between atoms: _257  and  _258
REMARK   92  A    between atoms: _261  and  _263
REMARK   93  A    between atoms: _263  and  _264
REMARK   94  A    between atoms: _263  and  _266
REMARK   95  A    between atoms: _266  and  _267
REMARK   96  A    between atoms: _267  and  _268
REMARK   97  A    between atoms: _268  and  _269
REMARK   98  A    between atoms: _278  and  _280
REMARK   99  A    between atoms: _280  and  _281
REMARK  100  A    between atoms: _280  and  _283
REMARK  101  A    between atoms: _283  and  _284
REMARK  102  A    between atoms: _294  and  _296
REMARK  103  A    between atoms: _296  and  _297
REMARK  104  A    between atoms: _296  and  _299
REMARK  105  A    between atoms: _299  and  _300
REMARK  106  A    between atoms: _305  and  _307
REMARK  107  A    between atoms: _307  and  _308
REMARK  108  A    between atoms: _307  and  _310
REMARK  109  A    between atoms: _310  and  _311
REMARK  110  A    between atoms: _315  and  ZN_423
REMARK  111  A    between atoms: _316  and  _318
REMARK  112  A    between atoms: _318  and  _319
REMARK  113  A    between atoms: _318  and  _321
REMARK  114  A    between atoms: _321  and  _322
REMARK  115  A    between atoms: _325  and  _327
REMARK  116  A    between atoms: _327  and  _328
REMARK  117  A    between atoms: _330  and  _332
REMARK  118  A    between atoms: _332  and  _333
REMARK  119  A    between atoms: _332  and  _335
REMARK  120  A    between atoms: _335  and  _336
REMARK  121  A    between atoms: _339  and  _341
REMARK  122  A    between atoms: _341  and  _342
REMARK  123  A    between atoms: _341  and  _344
REMARK  124  A    between atoms: _344  and  _345
REMARK  125  A    between atoms: _348  and  _350
REMARK  126  A    between atoms: _350  and  _351
REMARK  127  A    between atoms: _354  and  _356
REMARK  128  A    between atoms: _356  and  _357
REMARK  129  A    between atoms: _356  and  _359
REMARK  130  A    between atoms: _359  and  _360
REMARK  131  A    between atoms: _365  and  _366
REMARK  132  A    between atoms: _368  and  _370
REMARK  133  A    between atoms: _370  and  _371
REMARK  134  A    between atoms: _370  and  _373
REMARK  135  A    between atoms: _373  and  _374
REMARK  136  A    between atoms: _377  and  _379
REMARK  137  A    between atoms: _379  and  _380
REMARK  138  A    between atoms: _379  and  _382
REMARK  139  A    between atoms: _382  and  _383
REMARK  140  A    between atoms: _383  and  _384
REMARK  141  A    between atoms: _387  and  _389
REMARK  142  A    between atoms: _389  and  _390
REMARK  143  A    between atoms: _389  and  _392
REMARK  144  A    between atoms: _392  and  _393
REMARK  145  A    between atoms: _393  and  _394
REMARK  146  A    between atoms: _394  and  _395
REMARK  147  A    between atoms: _404  and  _406
REMARK  148  A    between atoms: _406  and  _407
REMARK  149  A    between atoms: _409  and  _411
REMARK  150  A    between atoms: _411  and  _412
REMARK  151  A    between atoms: _411  and  _414
REMARK  152  A    between atoms: _414  and  _415
REMARK  153  A    between atoms: _418  and  _420
REMARK  154  A    between atoms: _420  and  _421
REMARK                            x       y       z     vdW  Elec       q    Type
REMARK                         _______ _______ _______ _____ _____    ______ ____
ROOT
ATOM      1  O   HOH     1      24.706  61.484   9.093  0.00  0.00    +0.000 OA
ENDROOT
TORSDOF 0
REMARK  Name = ../refined-set-2016/3d50/3d50_pocket.pdb
REMARK  154 active torsions:
REMARK  status: ('A' for Active; 'I' for Inactive)
REMARK    1  A    between atoms: _1  and  _3
REMARK    2  A    between atoms: _14  and  _17
REMARK    3  A    between atoms: _17  and  _18
REMARK    4  A    between atoms: _25  and  _26
REMARK    5  A    between atoms: _33  and  _34
REMARK    6  A    between atoms: _39  and  _41
REMARK    7  A    between atoms: _41  and  _42
REMARK    8  A    between atoms: _44  and  _46
REMARK    9  A    between atoms: _46  and  _47
REMARK   10  A    between atoms: _46  and  _49
REMARK   11  A    between atoms: _49  and  _50
REMARK   12  A    between atoms: _60  and  _62
REMARK   13  A    between atoms: _62  and  _63
REMARK   14  A    between atoms: _62  and  _65
REMARK   15  A    between atoms: _65  and  _66
REMARK   16  A    between atoms: _69  and  _71
REMARK   17  A    between atoms: _71  and  _72
REMARK   18  A    between atoms: _71  and  _74
REMARK   19  A    between atoms: _74  and  _75
REMARK   20  A    between atoms: _80  and  _81
REMARK   21  A    between atoms: _83  and  _85
REMARK   22  A    between atoms: _85  and  _86
REMARK   23  A    between atoms: _85  and  _88
REMARK   24  A    between atoms: _88  and  _89
REMARK   25  A    between atoms: _89  and  _90
REMARK   26  A    between atoms: _92  and  _94
REMARK   27  A    between atoms: _94  and  _95
REMARK   28  A    between atoms: _94  and  _97
REMARK   29  A    between atoms: _97  and  _98
REMARK   30  A    between atoms: _101  and  _103
REMARK   31  A    between atoms: _103  and  _104
REMARK   32  A    between atoms: _103  and  _106
REMARK   33  A    between atoms: _106  and  _107
REMARK   34  A    between atoms: _107  and  _109
REMARK   35  A    between atoms: _109  and  ZN_423
REMARK   36  A    between atoms: _111  and  _112
REMARK   37  A    between atoms: _117  and  _119
REMARK   38  A    between atoms: _119  and  _120
REMARK   39  A    between atoms: _119  and  _122
REMARK   40  A    between atoms: _122  and  _123
REMARK   41  A    between atoms: _129  and  _131
REMARK   42  A    between atoms: _131  and  _132
REMARK   43  A    between atoms: _131  and  _134
REMARK   44  A    between atoms: _134  and  _135
REMARK   45  A    between atoms: _135  and  _136
REMARK   46  A    between atoms: _136  and  _137
REMARK   47  A    between atoms: _146  and  _148
REMARK   48  A    between atoms: _148  and  _149
REMARK   49  A    between atoms: _148  and  _151
REMARK   50  A    between atoms: _151  and  _152
REMARK   51  A    between atoms: _157  and  _158
REMARK   52  A    between atoms: _160  and  _162
REMARK   53  A    between atoms: _162  and  _163
REMARK   54  A    between atoms: _162  and  _165
REMARK   55  A    between atoms: _165  and  _166
REMARK   56  A    between atoms: _168  and  _170
REMARK   57  A    between atoms: _170  and  _171
REMARK   58  A    between atoms: _170  and  _173
REMARK   59  A    between atoms: _173  and  _174
REMARK   60  A    between atoms: _179  and  _180
REMARK   61  A    between atoms: _182  and  _184
REMARK   62  A    between atoms: _184  and  _185
REMARK   63  A    between atoms: _184  and  _187
REMARK   64  A    between atoms: _187  and  _188
REMARK   65  A    between atoms: _191  and  _193
REMARK   66  A    between atoms: _193  and  _194
REMARK   67  A    between atoms: _193  and  _196
REMARK   68  A    between atoms: _196  and  _197
REMARK   69  A    between atoms: _197  and  _198
REMARK   70  A    between atoms: _198  and  _199
REMARK   71  A    between atoms: _208  and  _210
REMARK   72  A    between atoms: _210  and  _211
REMARK   73  A    between atoms: _210  and  _213
REMARK   74  A    between atoms: _213  and  _214
REMARK   75  A    between atoms: _217  and  _219
REMARK   76  A    between atoms: _219  and  _220
REMARK   77  A    between atoms: _219  and  _222
REMARK   78  A    between atoms: _222  and  _223
REMARK   79  A    between atoms: _226  and  _228
REMARK   80  A    between atoms: _228  and  _229
REMARK   81  A    between atoms: _228  and  _231
REMARK   82  A    between atoms: _231  and  _232
REMARK   83  A    between atoms: _238  and  _240
REMARK   84  A    between atoms: _240  and  _241
REMARK   85  A    between atoms: _240  and  _243
REMARK   86  A    between atoms: _243  and  _244
REMARK   87  A    between atoms: _249  and  _250
REMARK   88  A    between atoms: _252  and  _254
REMARK   89  A    between atoms: _254  and  _255
REMARK   90  A    between atoms: _254  and  _257
REMARK   91  A    between atoms: _257  and  _258
REMARK   92  A    between atoms: _261  and  _263
REMARK   93  A    between atoms: _263  and  _264
REMARK   94  A    between atoms: _263  and  _266
REMARK   95  A    between atoms: _266  and  _267
REMARK   96  A    between atoms: _267  and  _268
REMARK   97  A    between atoms: _268  and  _269
REMARK   98  A    between atoms: _278  and  _280
REMARK   99  A    between atoms: _280  and  _281
REMARK  100  A    between atoms: _280  and  _283
REMARK  101  A    between atoms: _283  and  _284
REMARK  102  A    between atoms: _294  and  _296
REMARK  103  A    between atoms: _296  and  _297
REMARK  104  A    between atoms: _296  and  _299
REMARK  105  A    between atoms: _299  and  _300
REMARK  106  A    between atoms: _305  and  _307
REMARK  107  A    between atoms: _307  and  _308
REMARK  108  A    between atoms: _307  and  _310
REMARK  109  A    between atoms: _310  and  _311
REMARK  110  A    between atoms: _315  and  ZN_423
REMARK  111  A    between atoms: _316  and  _318
REMARK  112  A    between atoms: _318  and  _319
REMARK  113  A    between atoms: _318  and  _321
REMARK  114  A    between atoms: _321  and  _322
REMARK  115  A    between atoms: _325  and  _327
REMARK  116  A    between atoms: _327  and  _328
REMARK  117  A    between atoms: _330  and  _332
REMARK  118  A    between atoms: _332  and  _333
REMARK  119  A    between atoms: _332  and  _335
REMARK  120  A    between atoms: _335  and  _336
REMARK  121  A    between atoms: _339  and  _341
REMARK  122  A    between atoms: _341  and  _342
REMARK  123  A    between atoms: _341  and  _344
REMARK  124  A    between atoms: _344  and  _345
REMARK  125  A    between atoms: _348  and  _350
REMARK  126  A    between atoms: _350  and  _351
REMARK  127  A    between atoms: _354  and  _356
REMARK  128  A    between atoms: _356  and  _357
REMARK  129  A    between atoms: _356  and  _359
REMARK  130  A    between atoms: _359  and  _360
REMARK  131  A    between atoms: _365  and  _366
REMARK  132  A    between atoms: _368  and  _370
REMARK  133  A    between atoms: _370  and  _371
REMARK  134  A    between atoms: _370  and  _373
REMARK  135  A    between atoms: _373  and  _374
REMARK  136  A    between atoms: _377  and  _379
REMARK  137  A    between atoms: _379  and  _380
REMARK  138  A    between atoms: _379  and  _382
REMARK  139  A    between atoms: _382  and  _383
REMARK  140  A    between atoms: _383  and  _384
REMARK  141  A    between atoms: _387  and  _389
REMARK  142  A    between atoms: _389  and  _390
REMARK  143  A    between atoms: _389  and  _392
REMARK  144  A    between atoms: _392  and  _393
REMARK  145  A    between atoms: _393  and  _394
REMARK  146  A    between atoms: _394  and  _395
REMARK  147  A    between atoms: _404  and  _406
REMARK  148  A    between atoms: _406  and  _407
REMARK  149  A    between atoms: _409  and  _411
REMARK  150  A    between atoms: _411  and  _412
REMARK  151  A    between atoms: _411  and  _414
REMARK  152  A    between atoms: _414  and  _415
REMARK  153  A    between atoms: _418  and  _420
REMARK  154  A    between atoms: _420  and  _421
REMARK                            x       y       z     vdW  Elec       q    Type
REMARK                         _______ _______ _______ _____ _____    ______ ____
ROOT
ATOM      1  O   HOH     1      24.219  63.531   7.409  0.00  0.00    +0.000 OA
ENDROOT
TORSDOF 0
REMARK  Name = ../refined-set-2016/3d50/3d50_pocket.pdb
REMARK  154 active torsions:
REMARK  status: ('A' for Active; 'I' for Inactive)
REMARK    1  A    between atoms: _1  and  _3
REMARK    2  A    between atoms: _14  and  _17
REMARK    3  A    between atoms: _17  and  _18
REMARK    4  A    between atoms: _25  and  _26
REMARK    5  A    between atoms: _33  and  _34
REMARK    6  A    between atoms: _39  and  _41
REMARK    7  A    between atoms: _41  and  _42
REMARK    8  A    between atoms: _44  and  _46
REMARK    9  A    between atoms: _46  and  _47
REMARK   10  A    between atoms: _46  and  _49
REMARK   11  A    between atoms: _49  and  _50
REMARK   12  A    between atoms: _60  and  _62
REMARK   13  A    between atoms: _62  and  _63
REMARK   14  A    between atoms: _62  and  _65
REMARK   15  A    between atoms: _65  and  _66
REMARK   16  A    between atoms: _69  and  _71
REMARK   17  A    between atoms: _71  and  _72
REMARK   18  A    between atoms: _71  and  _74
REMARK   19  A    between atoms: _74  and  _75
REMARK   20  A    between atoms: _80  and  _81
REMARK   21  A    between atoms: _83  and  _85
REMARK   22  A    between atoms: _85  and  _86
REMARK   23  A    between atoms: _85  and  _88
REMARK   24  A    between atoms: _88  and  _89
REMARK   25  A    between atoms: _89  and  _90
REMARK   26  A    between atoms: _92  and  _94
REMARK   27  A    between atoms: _94  and  _95
REMARK   28  A    between atoms: _94  and  _97
REMARK   29  A    between atoms: _97  and  _98
REMARK   30  A    between atoms: _101  and  _103
REMARK   31  A    between atoms: _103  and  _104
REMARK   32  A    between atoms: _103  and  _106
REMARK   33  A    between atoms: _106  and  _107
REMARK   34  A    between atoms: _107  and  _109
REMARK   35  A    between atoms: _109  and  ZN_423
REMARK   36  A    between atoms: _111  and  _112
REMARK   37  A    between atoms: _117  and  _119
REMARK   38  A    between atoms: _119  and  _120
REMARK   39  A    between atoms: _119  and  _122
REMARK   40  A    between atoms: _122  and  _123
REMARK   41  A    between atoms: _129  and  _131
REMARK   42  A    between atoms: _131  and  _132
REMARK   43  A    between atoms: _131  and  _134
REMARK   44  A    between atoms: _134  and  _135
REMARK   45  A    between atoms: _135  and  _136
REMARK   46  A    between atoms: _136  and  _137
REMARK   47  A    between atoms: _146  and  _148
REMARK   48  A    between atoms: _148  and  _149
REMARK   49  A    between atoms: _148  and  _151
REMARK   50  A    between atoms: _151  and  _152
REMARK   51  A    between atoms: _157  and  _158
REMARK   52  A    between atoms: _160  and  _162
REMARK   53  A    between atoms: _162  and  _163
REMARK   54  A    between atoms: _162  and  _165
REMARK   55  A    between atoms: _165  and  _166
REMARK   56  A    between atoms: _168  and  _170
REMARK   57  A    between atoms: _170  and  _171
REMARK   58  A    between atoms: _170  and  _173
REMARK   59  A    between atoms: _173  and  _174
REMARK   60  A    between atoms: _179  and  _180
REMARK   61  A    between atoms: _182  and  _184
REMARK   62  A    between atoms: _184  and  _185
REMARK   63  A    between atoms: _184  and  _187
REMARK   64  A    between atoms: _187  and  _188
REMARK   65  A    between atoms: _191  and  _193
REMARK   66  A    between atoms: _193  and  _194
REMARK   67  A    between atoms: _193  and  _196
REMARK   68  A    between atoms: _196  and  _197
REMARK   69  A    between atoms: _197  and  _198
REMARK   70  A    between atoms: _198  and  _199
REMARK   71  A    between atoms: _208  and  _210
REMARK   72  A    between atoms: _210  and  _211
REMARK   73  A    between atoms: _210  and  _213
REMARK   74  A    between atoms: _213  and  _214
REMARK   75  A    between atoms: _217  and  _219
REMARK   76  A    between atoms: _219  and  _220
REMARK   77  A    between atoms: _219  and  _222
REMARK   78  A    between atoms: _222  and  _223
REMARK   79  A    between atoms: _226  and  _228
REMARK   80  A    between atoms: _228  and  _229
REMARK   81  A    between atoms: _228  and  _231
REMARK   82  A    between atoms: _231  and  _232
REMARK   83  A    between atoms: _238  and  _240
REMARK   84  A    between atoms: _240  and  _241
REMARK   85  A    between atoms: _240  and  _243
REMARK   86  A    between atoms: _243  and  _244
REMARK   87  A    between atoms: _249  and  _250
REMARK   88  A    between atoms: _252  and  _254
REMARK   89  A    between atoms: _254  and  _255
REMARK   90  A    between atoms: _254  and  _257
REMARK   91  A    between atoms: _257  and  _258
REMARK   92  A    between atoms: _261  and  _263
REMARK   93  A    between atoms: _263  and  _264
REMARK   94  A    between atoms: _263  and  _266
REMARK   95  A    between atoms: _266  and  _267
REMARK   96  A    between atoms: _267  and  _268
REMARK   97  A    between atoms: _268  and  _269
REMARK   98  A    between atoms: _278  and  _280
REMARK   99  A    between atoms: _280  and  _281
REMARK  100  A    between atoms: _280  and  _283
REMARK  101  A    between atoms: _283  and  _284
REMARK  102  A    between atoms: _294  and  _296
REMARK  103  A    between atoms: _296  and  _297
REMARK  104  A    between atoms: _296  and  _299
REMARK  105  A    between atoms: _299  and  _300
REMARK  106  A    between atoms: _305  and  _307
REMARK  107  A    between atoms: _307  and  _308
REMARK  108  A    between atoms: _307  and  _310
REMARK  109  A    between atoms: _310  and  _311
REMARK  110  A    between atoms: _315  and  ZN_423
REMARK  111  A    between atoms: _316  and  _318
REMARK  112  A    between atoms: _318  and  _319
REMARK  113  A    between atoms: _318  and  _321
REMARK  114  A    between atoms: _321  and  _322
REMARK  115  A    between atoms: _325  and  _327
REMARK  116  A    between atoms: _327  and  _328
REMARK  117  A    between atoms: _330  and  _332
REMARK  118  A    between atoms: _332  and  _333
REMARK  119  A    between atoms: _332  and  _335
REMARK  120  A    between atoms: _335  and  _336
REMARK  121  A    between atoms: _339  and  _341
REMARK  122  A    between atoms: _341  and  _342
REMARK  123  A    between atoms: _341  and  _344
REMARK  124  A    between atoms: _344  and  _345
REMARK  125  A    between atoms: _348  and  _350
REMARK  126  A    between atoms: _350  and  _351
REMARK  127  A    between atoms: _354  and  _356
REMARK  128  A    between atoms: _356  and  _357
REMARK  129  A    between atoms: _356  and  _359
REMARK  130  A    between atoms: _359  and  _360
REMARK  131  A    between atoms: _365  and  _366
REMARK  132  A    between atoms: _368  and  _370
REMARK  133  A    between atoms: _370  and  _371
REMARK  134  A    between atoms: _370  and  _373
REMARK  135  A    between atoms: _373  and  _374
REMARK  136  A    between atoms: _377  and  _379
REMARK  137  A    between atoms: _379  and  _380
REMARK  138  A    between atoms: _379  and  _382
REMARK  139  A    between atoms: _382  and  _383
REMARK  140  A    between atoms: _383  and  _384
REMARK  141  A    between atoms: _387  and  _389
REMARK  142  A    between atoms: _389  and  _390
REMARK  143  A    between atoms: _389  and  _392
REMARK  144  A    between atoms: _392  and  _393
REMARK  145  A    between atoms: _393  and  _394
REMARK  146  A    between atoms: _394  and  _395
REMARK  147  A    between atoms: _404  and  _406
REMARK  148  A    between atoms: _406  and  _407
REMARK  149  A    between atoms: _409  and  _411
REMARK  150  A    between atoms: _411  and  _412
REMARK  151  A    between atoms: _411  and  _414
REMARK  152  A    between atoms: _414  and  _415
REMARK  153  A    between atoms: _418  and  _420
REMARK  154  A    between atoms: _420  and  _421
REMARK                            x       y       z     vdW  Elec       q    Type
REMARK                         _______ _______ _______ _____ _____    ______ ____
ROOT
ATOM      1  O   HOH     1      26.421  64.993   8.444  0.00  0.00    +0.000 OA
ENDROOT
TORSDOF 0
REMARK  Name = ../refined-set-2016/3d50/3d50_pocket.pdb
REMARK  154 active torsions:
REMARK  status: ('A' for Active; 'I' for Inactive)
REMARK    1  A    between atoms: _1  and  _3
REMARK    2  A    between atoms: _14  and  _17
REMARK    3  A    between atoms: _17  and  _18
REMARK    4  A    between atoms: _25  and  _26
REMARK    5  A    between atoms: _33  and  _34
REMARK    6  A    between atoms: _39  and  _41
REMARK    7  A    between atoms: _41  and  _42
REMARK    8  A    between atoms: _44  and  _46
REMARK    9  A    between atoms: _46  and  _47
REMARK   10  A    between atoms: _46  and  _49
REMARK   11  A    between atoms: _49  and  _50
REMARK   12  A    between atoms: _60  and  _62
REMARK   13  A    between atoms: _62  and  _63
REMARK   14  A    between atoms: _62  and  _65
REMARK   15  A    between atoms: _65  and  _66
REMARK   16  A    between atoms: _69  and  _71
REMARK   17  A    between atoms: _71  and  _72
REMARK   18  A    between atoms: _71  and  _74
REMARK   19  A    between atoms: _74  and  _75
REMARK   20  A    between atoms: _80  and  _81
REMARK   21  A    between atoms: _83  and  _85
REMARK   22  A    between atoms: _85  and  _86
REMARK   23  A    between atoms: _85  and  _88
REMARK   24  A    between atoms: _88  and  _89
REMARK   25  A    between atoms: _89  and  _90
REMARK   26  A    between atoms: _92  and  _94
REMARK   27  A    between atoms: _94  and  _95
REMARK   28  A    between atoms: _94  and  _97
REMARK   29  A    between atoms: _97  and  _98
REMARK   30  A    between atoms: _101  and  _103
REMARK   31  A    between atoms: _103  and  _104
REMARK   32  A    between atoms: _103  and  _106
REMARK   33  A    between atoms: _106  and  _107
REMARK   34  A    between atoms: _107  and  _109
REMARK   35  A    between atoms: _109  and  ZN_423
REMARK   36  A    between atoms: _111  and  _112
REMARK   37  A    between atoms: _117  and  _119
REMARK   38  A    between atoms: _119  and  _120
REMARK   39  A    between atoms: _119  and  _122
REMARK   40  A    between atoms: _122  and  _123
REMARK   41  A    between atoms: _129  and  _131
REMARK   42  A    between atoms: _131  and  _132
REMARK   43  A    between atoms: _131  and  _134
REMARK   44  A    between atoms: _134  and  _135
REMARK   45  A    between atoms: _135  and  _136
REMARK   46  A    between atoms: _136  and  _137
REMARK   47  A    between atoms: _146  and  _148
REMARK   48  A    between atoms: _148  and  _149
REMARK   49  A    between atoms: _148  and  _151
REMARK   50  A    between atoms: _151  and  _152
REMARK   51  A    between atoms: _157  and  _158
REMARK   52  A    between atoms: _160  and  _162
REMARK   53  A    between atoms: _162  and  _163
REMARK   54  A    between atoms: _162  and  _165
REMARK   55  A    between atoms: _165  and  _166
REMARK   56  A    between atoms: _168  and  _170
REMARK   57  A    between atoms: _170  and  _171
REMARK   58  A    between atoms: _170  and  _173
REMARK   59  A    between atoms: _173  and  _174
REMARK   60  A    between atoms: _179  and  _180
REMARK   61  A    between atoms: _182  and  _184
REMARK   62  A    between atoms: _184  and  _185
REMARK   63  A    between atoms: _184  and  _187
REMARK   64  A    between atoms: _187  and  _188
REMARK   65  A    between atoms: _191  and  _193
REMARK   66  A    between atoms: _193  and  _194
REMARK   67  A    between atoms: _193  and  _196
REMARK   68  A    between atoms: _196  and  _197
REMARK   69  A    between atoms: _197  and  _198
REMARK   70  A    between atoms: _198  and  _199
REMARK   71  A    between atoms: _208  and  _210
REMARK   72  A    between atoms: _210  and  _211
REMARK   73  A    between atoms: _210  and  _213
REMARK   74  A    between atoms: _213  and  _214
REMARK   75  A    between atoms: _217  and  _219
REMARK   76  A    between atoms: _219  and  _220
REMARK   77  A    between atoms: _219  and  _222
REMARK   78  A    between atoms: _222  and  _223
REMARK   79  A    between atoms: _226  and  _228
REMARK   80  A    between atoms: _228  and  _229
REMARK   81  A    between atoms: _228  and  _231
REMARK   82  A    between atoms: _231  and  _232
REMARK   83  A    between atoms: _238  and  _240
REMARK   84  A    between atoms: _240  and  _241
REMARK   85  A    between atoms: _240  and  _243
REMARK   86  A    between atoms: _243  and  _244
REMARK   87  A    between atoms: _249  and  _250
REMARK   88  A    between atoms: _252  and  _254
REMARK   89  A    between atoms: _254  and  _255
REMARK   90  A    between atoms: _254  and  _257
REMARK   91  A    between atoms: _257  and  _258
REMARK   92  A    between atoms: _261  and  _263
REMARK   93  A    between atoms: _263  and  _264
REMARK   94  A    between atoms: _263  and  _266
REMARK   95  A    between atoms: _266  and  _267
REMARK   96  A    between atoms: _267  and  _268
REMARK   97  A    between atoms: _268  and  _269
REMARK   98  A    between atoms: _278  and  _280
REMARK   99  A    between atoms: _280  and  _281
REMARK  100  A    between atoms: _280  and  _283
REMARK  101  A    between atoms: _283  and  _284
REMARK  102  A    between atoms: _294  and  _296
REMARK  103  A    between atoms: _296  and  _297
REMARK  104  A    between atoms: _296  and  _299
REMARK  105  A    between atoms: _299  and  _300
REMARK  106  A    between atoms: _305  and  _307
REMARK  107  A    between atoms: _307  and  _308
REMARK  108  A    between atoms: _307  and  _310
REMARK  109  A    between atoms: _310  and  _311
REMARK  110  A    between atoms: _315  and  ZN_423
REMARK  111  A    between atoms: _316  and  _318
REMARK  112  A    between atoms: _318  and  _319
REMARK  113  A    between atoms: _318  and  _321
REMARK  114  A    between atoms: _321  and  _322
REMARK  115  A    between atoms: _325  and  _327
REMARK  116  A    between atoms: _327  and  _328
REMARK  117  A    between atoms: _330  and  _332
REMARK  118  A    between atoms: _332  and  _333
REMARK  119  A    between atoms: _332  and  _335
REMARK  120  A    between atoms: _335  and  _336
REMARK  121  A    between atoms: _339  and  _341
REMARK  122  A    between atoms: _341  and  _342
REMARK  123  A    between atoms: _341  and  _344
REMARK  124  A    between atoms: _344  and  _345
REMARK  125  A    between atoms: _348  and  _350
REMARK  126  A    between atoms: _350  and  _351
REMARK  127  A    between atoms: _354  and  _356
REMARK  128  A    between atoms: _356  and  _357
REMARK  129  A    between atoms: _356  and  _359
REMARK  130  A    between atoms: _359  and  _360
REMARK  131  A    between atoms: _365  and  _366
REMARK  132  A    between atoms: _368  and  _370
REMARK  133  A    between atoms: _370  and  _371
REMARK  134  A    between atoms: _370  and  _373
REMARK  135  A    between atoms: _373  and  _374
REMARK  136  A    between atoms: _377  and  _379
REMARK  137  A    between atoms: _379  and  _380
REMARK  138  A    between atoms: _379  and  _382
REMARK  139  A    between atoms: _382  and  _383
REMARK  140  A    between atoms: _383  and  _384
REMARK  141  A    between atoms: _387  and  _389
REMARK  142  A    between atoms: _389  and  _390
REMARK  143  A    between atoms: _389  and  _392
REMARK  144  A    between atoms: _392  and  _393
REMARK  145  A    between atoms: _393  and  _394
REMARK  146  A    between atoms: _394  and  _395
REMARK  147  A    between atoms: _404  and  _406
REMARK  148  A    between atoms: _406  and  _407
REMARK  149  A    between atoms: _409  and  _411
REMARK  150  A    between atoms: _411  and  _412
REMARK  151  A    between atoms: _411  and  _414
REMARK  152  A    between atoms: _414  and  _415
REMARK  153  A    between atoms: _418  and  _420
REMARK  154  A    between atoms: _420  and  _421
REMARK                            x       y       z     vdW  Elec       q    Type
REMARK                         _______ _______ _______ _____ _____    ______ ____
ROOT
ATOM      1  O   HOH     1      29.559  63.352   9.715  0.00  0.00    +0.000 OA
ENDROOT
TORSDOF 0
REMARK  Name = ../refined-set-2016/3d50/3d50_pocket.pdb
REMARK  154 active torsions:
REMARK  status: ('A' for Active; 'I' for Inactive)
REMARK    1  A    between atoms: _1  and  _3
REMARK    2  A    between atoms: _14  and  _17
REMARK    3  A    between atoms: _17  and  _18
REMARK    4  A    between atoms: _25  and  _26
REMARK    5  A    between atoms: _33  and  _34
REMARK    6  A    between atoms: _39  and  _41
REMARK    7  A    between atoms: _41  and  _42
REMARK    8  A    between atoms: _44  and  _46
REMARK    9  A    between atoms: _46  and  _47
REMARK   10  A    between atoms: _46  and  _49
REMARK   11  A    between atoms: _49  and  _50
REMARK   12  A    between atoms: _60  and  _62
REMARK   13  A    between atoms: _62  and  _63
REMARK   14  A    between atoms: _62  and  _65
REMARK   15  A    between atoms: _65  and  _66
REMARK   16  A    between atoms: _69  and  _71
REMARK   17  A    between atoms: _71  and  _72
REMARK   18  A    between atoms: _71  and  _74
REMARK   19  A    between atoms: _74  and  _75
REMARK   20  A    between atoms: _80  and  _81
REMARK   21  A    between atoms: _83  and  _85
REMARK   22  A    between atoms: _85  and  _86
REMARK   23  A    between atoms: _85  and  _88
REMARK   24  A    between atoms: _88  and  _89
REMARK   25  A    between atoms: _89  and  _90
REMARK   26  A    between atoms: _92  and  _94
REMARK   27  A    between atoms: _94  and  _95
REMARK   28  A    between atoms: _94  and  _97
REMARK   29  A    between atoms: _97  and  _98
REMARK   30  A    between atoms: _101  and  _103
REMARK   31  A    between atoms: _103  and  _104
REMARK   32  A    between atoms: _103  and  _106
REMARK   33  A    between atoms: _106  and  _107
REMARK   34  A    between atoms: _107  and  _109
REMARK   35  A    between atoms: _109  and  ZN_423
REMARK   36  A    between atoms: _111  and  _112
REMARK   37  A    between atoms: _117  and  _119
REMARK   38  A    between atoms: _119  and  _120
REMARK   39  A    between atoms: _119  and  _122
REMARK   40  A    between atoms: _122  and  _123
REMARK   41  A    between atoms: _129  and  _131
REMARK   42  A    between atoms: _131  and  _132
REMARK   43  A    between atoms: _131  and  _134
REMARK   44  A    between atoms: _134  and  _135
REMARK   45  A    between atoms: _135  and  _136
REMARK   46  A    between atoms: _136  and  _137
REMARK   47  A    between atoms: _146  and  _148
REMARK   48  A    between atoms: _148  and  _149
REMARK   49  A    between atoms: _148  and  _151
REMARK   50  A    between atoms: _151  and  _152
REMARK   51  A    between atoms: _157  and  _158
REMARK   52  A    between atoms: _160  and  _162
REMARK   53  A    between atoms: _162  and  _163
REMARK   54  A    between atoms: _162  and  _165
REMARK   55  A    between atoms: _165  and  _166
REMARK   56  A    between atoms: _168  and  _170
REMARK   57  A    between atoms: _170  and  _171
REMARK   58  A    between atoms: _170  and  _173
REMARK   59  A    between atoms: _173  and  _174
REMARK   60  A    between atoms: _179  and  _180
REMARK   61  A    between atoms: _182  and  _184
REMARK   62  A    between atoms: _184  and  _185
REMARK   63  A    between atoms: _184  and  _187
REMARK   64  A    between atoms: _187  and  _188
REMARK   65  A    between atoms: _191  and  _193
REMARK   66  A    between atoms: _193  and  _194
REMARK   67  A    between atoms: _193  and  _196
REMARK   68  A    between atoms: _196  and  _197
REMARK   69  A    between atoms: _197  and  _198
REMARK   70  A    between atoms: _198  and  _199
REMARK   71  A    between atoms: _208  and  _210
REMARK   72  A    between atoms: _210  and  _211
REMARK   73  A    between atoms: _210  and  _213
REMARK   74  A    between atoms: _213  and  _214
REMARK   75  A    between atoms: _217  and  _219
REMARK   76  A    between atoms: _219  and  _220
REMARK   77  A    between atoms: _219  and  _222
REMARK   78  A    between atoms: _222  and  _223
REMARK   79  A    between atoms: _226  and  _228
REMARK   80  A    between atoms: _228  and  _229
REMARK   81  A    between atoms: _228  and  _231
REMARK   82  A    between atoms: _231  and  _232
REMARK   83  A    between atoms: _238  and  _240
REMARK   84  A    between atoms: _240  and  _241
REMARK   85  A    between atoms: _240  and  _243
REMARK   86  A    between atoms: _243  and  _244
REMARK   87  A    between atoms: _249  and  _250
REMARK   88  A    between atoms: _252  and  _254
REMARK   89  A    between atoms: _254  and  _255
REMARK   90  A    between atoms: _254  and  _257
REMARK   91  A    between atoms: _257  and  _258
REMARK   92  A    between atoms: _261  and  _263
REMARK   93  A    between atoms: _263  and  _264
REMARK   94  A    between atoms: _263  and  _266
REMARK   95  A    between atoms: _266  and  _267
REMARK   96  A    between atoms: _267  and  _268
REMARK   97  A    between atoms: _268  and  _269
REMARK   98  A    between atoms: _278  and  _280
REMARK   99  A    between atoms: _280  and  _281
REMARK  100  A    between atoms: _280  and  _283
REMARK  101  A    between atoms: _283  and  _284
REMARK  102  A    between atoms: _294  and  _296
REMARK  103  A    between atoms: _296  and  _297
REMARK  104  A    between atoms: _296  and  _299
REMARK  105  A    between atoms: _299  and  _300
REMARK  106  A    between atoms: _305  and  _307
REMARK  107  A    between atoms: _307  and  _308
REMARK  108  A    between atoms: _307  and  _310
REMARK  109  A    between atoms: _310  and  _311
REMARK  110  A    between atoms: _315  and  ZN_423
REMARK  111  A    between atoms: _316  and  _318
REMARK  112  A    between atoms: _318  and  _319
REMARK  113  A    between atoms: _318  and  _321
REMARK  114  A    between atoms: _321  and  _322
REMARK  115  A    between atoms: _325  and  _327
REMARK  116  A    between atoms: _327  and  _328
REMARK  117  A    between atoms: _330  and  _332
REMARK  118  A    between atoms: _332  and  _333
REMARK  119  A    between atoms: _332  and  _335
REMARK  120  A    between atoms: _335  and  _336
REMARK  121  A    between atoms: _339  and  _341
REMARK  122  A    between atoms: _341  and  _342
REMARK  123  A    between atoms: _341  and  _344
REMARK  124  A    between atoms: _344  and  _345
REMARK  125  A    between atoms: _348  and  _350
REMARK  126  A    between atoms: _350  and  _351
REMARK  127  A    between atoms: _354  and  _356
REMARK  128  A    between atoms: _356  and  _357
REMARK  129  A    between atoms: _356  and  _359
REMARK  130  A    between atoms: _359  and  _360
REMARK  131  A    between atoms: _365  and  _366
REMARK  132  A    between atoms: _368  and  _370
REMARK  133  A    between atoms: _370  and  _371
REMARK  134  A    between atoms: _370  and  _373
REMARK  135  A    between atoms: _373  and  _374
REMARK  136  A    between atoms: _377  and  _379
REMARK  137  A    between atoms: _379  and  _380
REMARK  138  A    between atoms: _379  and  _382
REMARK  139  A    between atoms: _382  and  _383
REMARK  140  A    between atoms: _383  and  _384
REMARK  141  A    between atoms: _387  and  _389
REMARK  142  A    between atoms: _389  and  _390
REMARK  143  A    between atoms: _389  and  _392
REMARK  144  A    between atoms: _392  and  _393
REMARK  145  A    between atoms: _393  and  _394
REMARK  146  A    between atoms: _394  and  _395
REMARK  147  A    between atoms: _404  and  _406
REMARK  148  A    between atoms: _406  and  _407
REMARK  149  A    between atoms: _409  and  _411
REMARK  150  A    between atoms: _411  and  _412
REMARK  151  A    between atoms: _411  and  _414
REMARK  152  A    between atoms: _414  and  _415
REMARK  153  A    between atoms: _418  and  _420
REMARK  154  A    between atoms: _420  and  _421
REMARK                            x       y       z     vdW  Elec       q    Type
REMARK                         _______ _______ _______ _____ _____    ______ ____
ROOT
ATOM      1  O   HOH     1      28.395  63.197  14.134  0.00  0.00    +0.000 OA
ENDROOT
TORSDOF 0
REMARK  Name = ../refined-set-2016/3d50/3d50_pocket.pdb
REMARK  154 active torsions:
REMARK  status: ('A' for Active; 'I' for Inactive)
REMARK    1  A    between atoms: _1  and  _3
REMARK    2  A    between atoms: _14  and  _17
REMARK    3  A    between atoms: _17  and  _18
REMARK    4  A    between atoms: _25  and  _26
REMARK    5  A    between atoms: _33  and  _34
REMARK    6  A    between atoms: _39  and  _41
REMARK    7  A    between atoms: _41  and  _42
REMARK    8  A    between atoms: _44  and  _46
REMARK    9  A    between atoms: _46  and  _47
REMARK   10  A    between atoms: _46  and  _49
REMARK   11  A    between atoms: _49  and  _50
REMARK   12  A    between atoms: _60  and  _62
REMARK   13  A    between atoms: _62  and  _63
REMARK   14  A    between atoms: _62  and  _65
REMARK   15  A    between atoms: _65  and  _66
REMARK   16  A    between atoms: _69  and  _71
REMARK   17  A    between atoms: _71  and  _72
REMARK   18  A    between atoms: _71  and  _74
REMARK   19  A    between atoms: _74  and  _75
REMARK   20  A    between atoms: _80  and  _81
REMARK   21  A    between atoms: _83  and  _85
REMARK   22  A    between atoms: _85  and  _86
REMARK   23  A    between atoms: _85  and  _88
REMARK   24  A    between atoms: _88  and  _89
REMARK   25  A    between atoms: _89  and  _90
REMARK   26  A    between atoms: _92  and  _94
REMARK   27  A    between atoms: _94  and  _95
REMARK   28  A    between atoms: _94  and  _97
REMARK   29  A    between atoms: _97  and  _98
REMARK   30  A    between atoms: _101  and  _103
REMARK   31  A    between atoms: _103  and  _104
REMARK   32  A    between atoms: _103  and  _106
REMARK   33  A    between atoms: _106  and  _107
REMARK   34  A    between atoms: _107  and  _109
REMARK   35  A    between atoms: _109  and  ZN_423
REMARK   36  A    between atoms: _111  and  _112
REMARK   37  A    between atoms: _117  and  _119
REMARK   38  A    between atoms: _119  and  _120
REMARK   39  A    between atoms: _119  and  _122
REMARK   40  A    between atoms: _122  and  _123
REMARK   41  A    between atoms: _129  and  _131
REMARK   42  A    between atoms: _131  and  _132
REMARK   43  A    between atoms: _131  and  _134
REMARK   44  A    between atoms: _134  and  _135
REMARK   45  A    between atoms: _135  and  _136
REMARK   46  A    between atoms: _136  and  _137
REMARK   47  A    between atoms: _146  and  _148
REMARK   48  A    between atoms: _148  and  _149
REMARK   49  A    between atoms: _148  and  _151
REMARK   50  A    between atoms: _151  and  _152
REMARK   51  A    between atoms: _157  and  _158
REMARK   52  A    between atoms: _160  and  _162
REMARK   53  A    between atoms: _162  and  _163
REMARK   54  A    between atoms: _162  and  _165
REMARK   55  A    between atoms: _165  and  _166
REMARK   56  A    between atoms: _168  and  _170
REMARK   57  A    between atoms: _170  and  _171
REMARK   58  A    between atoms: _170  and  _173
REMARK   59  A    between atoms: _173  and  _174
REMARK   60  A    between atoms: _179  and  _180
REMARK   61  A    between atoms: _182  and  _184
REMARK   62  A    between atoms: _184  and  _185
REMARK   63  A    between atoms: _184  and  _187
REMARK   64  A    between atoms: _187  and  _188
REMARK   65  A    between atoms: _191  and  _193
REMARK   66  A    between atoms: _193  and  _194
REMARK   67  A    between atoms: _193  and  _196
REMARK   68  A    between atoms: _196  and  _197
REMARK   69  A    between atoms: _197  and  _198
REMARK   70  A    between atoms: _198  and  _199
REMARK   71  A    between atoms: _208  and  _210
REMARK   72  A    between atoms: _210  and  _211
REMARK   73  A    between atoms: _210  and  _213
REMARK   74  A    between atoms: _213  and  _214
REMARK   75  A    between atoms: _217  and  _219
REMARK   76  A    between atoms: _219  and  _220
REMARK   77  A    between atoms: _219  and  _222
REMARK   78  A    between atoms: _222  and  _223
REMARK   79  A    between atoms: _226  and  _228
REMARK   80  A    between atoms: _228  and  _229
REMARK   81  A    between atoms: _228  and  _231
REMARK   82  A    between atoms: _231  and  _232
REMARK   83  A    between atoms: _238  and  _240
REMARK   84  A    between atoms: _240  and  _241
REMARK   85  A    between atoms: _240  and  _243
REMARK   86  A    between atoms: _243  and  _244
REMARK   87  A    between atoms: _249  and  _250
REMARK   88  A    between atoms: _252  and  _254
REMARK   89  A    between atoms: _254  and  _255
REMARK   90  A    between atoms: _254  and  _257
REMARK   91  A    between atoms: _257  and  _258
REMARK   92  A    between atoms: _261  and  _263
REMARK   93  A    between atoms: _263  and  _264
REMARK   94  A    between atoms: _263  and  _266
REMARK   95  A    between atoms: _266  and  _267
REMARK   96  A    between atoms: _267  and  _268
REMARK   97  A    between atoms: _268  and  _269
REMARK   98  A    between atoms: _278  and  _280
REMARK   99  A    between atoms: _280  and  _281
REMARK  100  A    between atoms: _280  and  _283
REMARK  101  A    between atoms: _283  and  _284
REMARK  102  A    between atoms: _294  and  _296
REMARK  103  A    between atoms: _296  and  _297
REMARK  104  A    between atoms: _296  and  _299
REMARK  105  A    between atoms: _299  and  _300
REMARK  106  A    between atoms: _305  and  _307
REMARK  107  A    between atoms: _307  and  _308
REMARK  108  A    between atoms: _307  and  _310
REMARK  109  A    between atoms: _310  and  _311
REMARK  110  A    between atoms: _315  and  ZN_423
REMARK  111  A    between atoms: _316  and  _318
REMARK  112  A    between atoms: _318  and  _319
REMARK  113  A    between atoms: _318  and  _321
REMARK  114  A    between atoms: _321  and  _322
REMARK  115  A    between atoms: _325  and  _327
REMARK  116  A    between atoms: _327  and  _328
REMARK  117  A    between atoms: _330  and  _332
REMARK  118  A    between atoms: _332  and  _333
REMARK  119  A    between atoms: _332  and  _335
REMARK  120  A    between atoms: _335  and  _336
REMARK  121  A    between atoms: _339  and  _341
REMARK  122  A    between atoms: _341  and  _342
REMARK  123  A    between atoms: _341  and  _344
REMARK  124  A    between atoms: _344  and  _345
REMARK  125  A    between atoms: _348  and  _350
REMARK  126  A    between atoms: _350  and  _351
REMARK  127  A    between atoms: _354  and  _356
REMARK  128  A    between atoms: _356  and  _357
REMARK  129  A    between atoms: _356  and  _359
REMARK  130  A    between atoms: _359  and  _360
REMARK  131  A    between atoms: _365  and  _366
REMARK  132  A    between atoms: _368  and  _370
REMARK  133  A    between atoms: _370  and  _371
REMARK  134  A    between atoms: _370  and  _373
REMARK  135  A    between atoms: _373  and  _374
REMARK  136  A    between atoms: _377  and  _379
REMARK  137  A    between atoms: _379  and  _380
REMARK  138  A    between atoms: _379  and  _382
REMARK  139  A    between atoms: _382  and  _383
REMARK  140  A    between atoms: _383  and  _384
REMARK  141  A    between atoms: _387  and  _389
REMARK  142  A    between atoms: _389  and  _390
REMARK  143  A    between atoms: _389  and  _392
REMARK  144  A    between atoms: _392  and  _393
REMARK  145  A    between atoms: _393  and  _394
REMARK  146  A    between atoms: _394  and  _395
REMARK  147  A    between atoms: _404  and  _406
REMARK  148  A    between atoms: _406  and  _407
REMARK  149  A    between atoms: _409  and  _411
REMARK  150  A    between atoms: _411  and  _412
REMARK  151  A    between atoms: _411  and  _414
REMARK  152  A    between atoms: _414  and  _415
REMARK  153  A    between atoms: _418  and  _420
REMARK  154  A    between atoms: _420  and  _421
REMARK                            x       y       z     vdW  Elec       q    Type
REMARK                         _______ _______ _______ _____ _____    ______ ____
ROOT
ATOM      1  O   HOH     1      29.450  65.843  15.971  0.00  0.00    +0.000 OA
ENDROOT
TORSDOF 0
REMARK  Name = ../refined-set-2016/3d50/3d50_pocket.pdb
REMARK  154 active torsions:
REMARK  status: ('A' for Active; 'I' for Inactive)
REMARK    1  A    between atoms: _1  and  _3
REMARK    2  A    between atoms: _14  and  _17
REMARK    3  A    between atoms: _17  and  _18
REMARK    4  A    between atoms: _25  and  _26
REMARK    5  A    between atoms: _33  and  _34
REMARK    6  A    between atoms: _39  and  _41
REMARK    7  A    between atoms: _41  and  _42
REMARK    8  A    between atoms: _44  and  _46
REMARK    9  A    between atoms: _46  and  _47
REMARK   10  A    between atoms: _46  and  _49
REMARK   11  A    between atoms: _49  and  _50
REMARK   12  A    between atoms: _60  and  _62
REMARK   13  A    between atoms: _62  and  _63
REMARK   14  A    between atoms: _62  and  _65
REMARK   15  A    between atoms: _65  and  _66
REMARK   16  A    between atoms: _69  and  _71
REMARK   17  A    between atoms: _71  and  _72
REMARK   18  A    between atoms: _71  and  _74
REMARK   19  A    between atoms: _74  and  _75
REMARK   20  A    between atoms: _80  and  _81
REMARK   21  A    between atoms: _83  and  _85
REMARK   22  A    between atoms: _85  and  _86
REMARK   23  A    between atoms: _85  and  _88
REMARK   24  A    between atoms: _88  and  _89
REMARK   25  A    between atoms: _89  and  _90
REMARK   26  A    between atoms: _92  and  _94
REMARK   27  A    between atoms: _94  and  _95
REMARK   28  A    between atoms: _94  and  _97
REMARK   29  A    between atoms: _97  and  _98
REMARK   30  A    between atoms: _101  and  _103
REMARK   31  A    between atoms: _103  and  _104
REMARK   32  A    between atoms: _103  and  _106
REMARK   33  A    between atoms: _106  and  _107
REMARK   34  A    between atoms: _107  and  _109
REMARK   35  A    between atoms: _109  and  ZN_423
REMARK   36  A    between atoms: _111  and  _112
REMARK   37  A    between atoms: _117  and  _119
REMARK   38  A    between atoms: _119  and  _120
REMARK   39  A    between atoms: _119  and  _122
REMARK   40  A    between atoms: _122  and  _123
REMARK   41  A    between atoms: _129  and  _131
REMARK   42  A    between atoms: _131  and  _132
REMARK   43  A    between atoms: _131  and  _134
REMARK   44  A    between atoms: _134  and  _135
REMARK   45  A    between atoms: _135  and  _136
REMARK   46  A    between atoms: _136  and  _137
REMARK   47  A    between atoms: _146  and  _148
REMARK   48  A    between atoms: _148  and  _149
REMARK   49  A    between atoms: _148  and  _151
REMARK   50  A    between atoms: _151  and  _152
REMARK   51  A    between atoms: _157  and  _158
REMARK   52  A    between atoms: _160  and  _162
REMARK   53  A    between atoms: _162  and  _163
REMARK   54  A    between atoms: _162  and  _165
REMARK   55  A    between atoms: _165  and  _166
REMARK   56  A    between atoms: _168  and  _170
REMARK   57  A    between atoms: _170  and  _171
REMARK   58  A    between atoms: _170  and  _173
REMARK   59  A    between atoms: _173  and  _174
REMARK   60  A    between atoms: _179  and  _180
REMARK   61  A    between atoms: _182  and  _184
REMARK   62  A    between atoms: _184  and  _185
REMARK   63  A    between atoms: _184  and  _187
REMARK   64  A    between atoms: _187  and  _188
REMARK   65  A    between atoms: _191  and  _193
REMARK   66  A    between atoms: _193  and  _194
REMARK   67  A    between atoms: _193  and  _196
REMARK   68  A    between atoms: _196  and  _197
REMARK   69  A    between atoms: _197  and  _198
REMARK   70  A    between atoms: _198  and  _199
REMARK   71  A    between atoms: _208  and  _210
REMARK   72  A    between atoms: _210  and  _211
REMARK   73  A    between atoms: _210  and  _213
REMARK   74  A    between atoms: _213  and  _214
REMARK   75  A    between atoms: _217  and  _219
REMARK   76  A    between atoms: _219  and  _220
REMARK   77  A    between atoms: _219  and  _222
REMARK   78  A    between atoms: _222  and  _223
REMARK   79  A    between atoms: _226  and  _228
REMARK   80  A    between atoms: _228  and  _229
REMARK   81  A    between atoms: _228  and  _231
REMARK   82  A    between atoms: _231  and  _232
REMARK   83  A    between atoms: _238  and  _240
REMARK   84  A    between atoms: _240  and  _241
REMARK   85  A    between atoms: _240  and  _243
REMARK   86  A    between atoms: _243  and  _244
REMARK   87  A    between atoms: _249  and  _250
REMARK   88  A    between atoms: _252  and  _254
REMARK   89  A    between atoms: _254  and  _255
REMARK   90  A    between atoms: _254  and  _257
REMARK   91  A    between atoms: _257  and  _258
REMARK   92  A    between atoms: _261  and  _263
REMARK   93  A    between atoms: _263  and  _264
REMARK   94  A    between atoms: _263  and  _266
REMARK   95  A    between atoms: _266  and  _267
REMARK   96  A    between atoms: _267  and  _268
REMARK   97  A    between atoms: _268  and  _269
REMARK   98  A    between atoms: _278  and  _280
REMARK   99  A    between atoms: _280  and  _281
REMARK  100  A    between atoms: _280  and  _283
REMARK  101  A    between atoms: _283  and  _284
REMARK  102  A    between atoms: _294  and  _296
REMARK  103  A    between atoms: _296  and  _297
REMARK  104  A    between atoms: _296  and  _299
REMARK  105  A    between atoms: _299  and  _300
REMARK  106  A    between atoms: _305  and  _307
REMARK  107  A    between atoms: _307  and  _308
REMARK  108  A    between atoms: _307  and  _310
REMARK  109  A    between atoms: _310  and  _311
REMARK  110  A    between atoms: _315  and  ZN_423
REMARK  111  A    between atoms: _316  and  _318
REMARK  112  A    between atoms: _318  and  _319
REMARK  113  A    between atoms: _318  and  _321
REMARK  114  A    between atoms: _321  and  _322
REMARK  115  A    between atoms: _325  and  _327
REMARK  116  A    between atoms: _327  and  _328
REMARK  117  A    between atoms: _330  and  _332
REMARK  118  A    between atoms: _332  and  _333
REMARK  119  A    between atoms: _332  and  _335
REMARK  120  A    between atoms: _335  and  _336
REMARK  121  A    between atoms: _339  and  _341
REMARK  122  A    between atoms: _341  and  _342
REMARK  123  A    between atoms: _341  and  _344
REMARK  124  A    between atoms: _344  and  _345
REMARK  125  A    between atoms: _348  and  _350
REMARK  126  A    between atoms: _350  and  _351
REMARK  127  A    between atoms: _354  and  _356
REMARK  128  A    between atoms: _356  and  _357
REMARK  129  A    between atoms: _356  and  _359
REMARK  130  A    between atoms: _359  and  _360
REMARK  131  A    between atoms: _365  and  _366
REMARK  132  A    between atoms: _368  and  _370
REMARK  133  A    between atoms: _370  and  _371
REMARK  134  A    between atoms: _370  and  _373
REMARK  135  A    between atoms: _373  and  _374
REMARK  136  A    between atoms: _377  and  _379
REMARK  137  A    between atoms: _379  and  _380
REMARK  138  A    between atoms: _379  and  _382
REMARK  139  A    between atoms: _382  and  _383
REMARK  140  A    between atoms: _383  and  _384
REMARK  141  A    between atoms: _387  and  _389
REMARK  142  A    between atoms: _389  and  _390
REMARK  143  A    between atoms: _389  and  _392
REMARK  144  A    between atoms: _392  and  _393
REMARK  145  A    between atoms: _393  and  _394
REMARK  146  A    between atoms: _394  and  _395
REMARK  147  A    between atoms: _404  and  _406
REMARK  148  A    between atoms: _406  and  _407
REMARK  149  A    between atoms: _409  and  _411
REMARK  150  A    between atoms: _411  and  _412
REMARK  151  A    between atoms: _411  and  _414
REMARK  152  A    between atoms: _414  and  _415
REMARK  153  A    between atoms: _418  and  _420
REMARK  154  A    between atoms: _420  and  _421
REMARK                            x       y       z     vdW  Elec       q    Type
REMARK                         _______ _______ _______ _____ _____    ______ ____
ROOT
ATOM      1  O   HOH     1      29.895  66.950  18.477  0.00  0.00    +0.000 OA
ENDROOT
TORSDOF 0
REMARK  Name = ../refined-set-2016/3d50/3d50_pocket.pdb
REMARK  154 active torsions:
REMARK  status: ('A' for Active; 'I' for Inactive)
REMARK    1  A    between atoms: _1  and  _3
REMARK    2  A    between atoms: _14  and  _17
REMARK    3  A    between atoms: _17  and  _18
REMARK    4  A    between atoms: _25  and  _26
REMARK    5  A    between atoms: _33  and  _34
REMARK    6  A    between atoms: _39  and  _41
REMARK    7  A    between atoms: _41  and  _42
REMARK    8  A    between atoms: _44  and  _46
REMARK    9  A    between atoms: _46  and  _47
REMARK   10  A    between atoms: _46  and  _49
REMARK   11  A    between atoms: _49  and  _50
REMARK   12  A    between atoms: _60  and  _62
REMARK   13  A    between atoms: _62  and  _63
REMARK   14  A    between atoms: _62  and  _65
REMARK   15  A    between atoms: _65  and  _66
REMARK   16  A    between atoms: _69  and  _71
REMARK   17  A    between atoms: _71  and  _72
REMARK   18  A    between atoms: _71  and  _74
REMARK   19  A    between atoms: _74  and  _75
REMARK   20  A    between atoms: _80  and  _81
REMARK   21  A    between atoms: _83  and  _85
REMARK   22  A    between atoms: _85  and  _86
REMARK   23  A    between atoms: _85  and  _88
REMARK   24  A    between atoms: _88  and  _89
REMARK   25  A    between atoms: _89  and  _90
REMARK   26  A    between atoms: _92  and  _94
REMARK   27  A    between atoms: _94  and  _95
REMARK   28  A    between atoms: _94  and  _97
REMARK   29  A    between atoms: _97  and  _98
REMARK   30  A    between atoms: _101  and  _103
REMARK   31  A    between atoms: _103  and  _104
REMARK   32  A    between atoms: _103  and  _106
REMARK   33  A    between atoms: _106  and  _107
REMARK   34  A    between atoms: _107  and  _109
REMARK   35  A    between atoms: _109  and  ZN_423
REMARK   36  A    between atoms: _111  and  _112
REMARK   37  A    between atoms: _117  and  _119
REMARK   38  A    between atoms: _119  and  _120
REMARK   39  A    between atoms: _119  and  _122
REMARK   40  A    between atoms: _122  and  _123
REMARK   41  A    between atoms: _129  and  _131
REMARK   42  A    between atoms: _131  and  _132
REMARK   43  A    between atoms: _131  and  _134
REMARK   44  A    between atoms: _134  and  _135
REMARK   45  A    between atoms: _135  and  _136
REMARK   46  A    between atoms: _136  and  _137
REMARK   47  A    between atoms: _146  and  _148
REMARK   48  A    between atoms: _148  and  _149
REMARK   49  A    between atoms: _148  and  _151
REMARK   50  A    between atoms: _151  and  _152
REMARK   51  A    between atoms: _157  and  _158
REMARK   52  A    between atoms: _160  and  _162
REMARK   53  A    between atoms: _162  and  _163
REMARK   54  A    between atoms: _162  and  _165
REMARK   55  A    between atoms: _165  and  _166
REMARK   56  A    between atoms: _168  and  _170
REMARK   57  A    between atoms: _170  and  _171
REMARK   58  A    between atoms: _170  and  _173
REMARK   59  A    between atoms: _173  and  _174
REMARK   60  A    between atoms: _179  and  _180
REMARK   61  A    between atoms: _182  and  _184
REMARK   62  A    between atoms: _184  and  _185
REMARK   63  A    between atoms: _184  and  _187
REMARK   64  A    between atoms: _187  and  _188
REMARK   65  A    between atoms: _191  and  _193
REMARK   66  A    between atoms: _193  and  _194
REMARK   67  A    between atoms: _193  and  _196
REMARK   68  A    between atoms: _196  and  _197
REMARK   69  A    between atoms: _197  and  _198
REMARK   70  A    between atoms: _198  and  _199
REMARK   71  A    between atoms: _208  and  _210
REMARK   72  A    between atoms: _210  and  _211
REMARK   73  A    between atoms: _210  and  _213
REMARK   74  A    between atoms: _213  and  _214
REMARK   75  A    between atoms: _217  and  _219
REMARK   76  A    between atoms: _219  and  _220
REMARK   77  A    between atoms: _219  and  _222
REMARK   78  A    between atoms: _222  and  _223
REMARK   79  A    between atoms: _226  and  _228
REMARK   80  A    between atoms: _228  and  _229
REMARK   81  A    between atoms: _228  and  _231
REMARK   82  A    between atoms: _231  and  _232
REMARK   83  A    between atoms: _238  and  _240
REMARK   84  A    between atoms: _240  and  _241
REMARK   85  A    between atoms: _240  and  _243
REMARK   86  A    between atoms: _243  and  _244
REMARK   87  A    between atoms: _249  and  _250
REMARK   88  A    between atoms: _252  and  _254
REMARK   89  A    between atoms: _254  and  _255
REMARK   90  A    between atoms: _254  and  _257
REMARK   91  A    between atoms: _257  and  _258
REMARK   92  A    between atoms: _261  and  _263
REMARK   93  A    between atoms: _263  and  _264
REMARK   94  A    between atoms: _263  and  _266
REMARK   95  A    between atoms: _266  and  _267
REMARK   96  A    between atoms: _267  and  _268
REMARK   97  A    between atoms: _268  and  _269
REMARK   98  A    between atoms: _278  and  _280
REMARK   99  A    between atoms: _280  and  _281
REMARK  100  A    between atoms: _280  and  _283
REMARK  101  A    between atoms: _283  and  _284
REMARK  102  A    between atoms: _294  and  _296
REMARK  103  A    between atoms: _296  and  _297
REMARK  104  A    between atoms: _296  and  _299
REMARK  105  A    between atoms: _299  and  _300
REMARK  106  A    between atoms: _305  and  _307
REMARK  107  A    between atoms: _307  and  _308
REMARK  108  A    between atoms: _307  and  _310
REMARK  109  A    between atoms: _310  and  _311
REMARK  110  A    between atoms: _315  and  ZN_423
REMARK  111  A    between atoms: _316  and  _318
REMARK  112  A    between atoms: _318  and  _319
REMARK  113  A    between atoms: _318  and  _321
REMARK  114  A    between atoms: _321  and  _322
REMARK  115  A    between atoms: _325  and  _327
REMARK  116  A    between atoms: _327  and  _328
REMARK  117  A    between atoms: _330  and  _332
REMARK  118  A    between atoms: _332  and  _333
REMARK  119  A    between atoms: _332  and  _335
REMARK  120  A    between atoms: _335  and  _336
REMARK  121  A    between atoms: _339  and  _341
REMARK  122  A    between atoms: _341  and  _342
REMARK  123  A    between atoms: _341  and  _344
REMARK  124  A    between atoms: _344  and  _345
REMARK  125  A    between atoms: _348  and  _350
REMARK  126  A    between atoms: _350  and  _351
REMARK  127  A    between atoms: _354  and  _356
REMARK  128  A    between atoms: _356  and  _357
REMARK  129  A    between atoms: _356  and  _359
REMARK  130  A    between atoms: _359  and  _360
REMARK  131  A    between atoms: _365  and  _366
REMARK  132  A    between atoms: _368  and  _370
REMARK  133  A    between atoms: _370  and  _371
REMARK  134  A    between atoms: _370  and  _373
REMARK  135  A    between atoms: _373  and  _374
REMARK  136  A    between atoms: _377  and  _379
REMARK  137  A    between atoms: _379  and  _380
REMARK  138  A    between atoms: _379  and  _382
REMARK  139  A    between atoms: _382  and  _383
REMARK  140  A    between atoms: _383  and  _384
REMARK  141  A    between atoms: _387  and  _389
REMARK  142  A    between atoms: _389  and  _390
REMARK  143  A    between atoms: _389  and  _392
REMARK  144  A    between atoms: _392  and  _393
REMARK  145  A    between atoms: _393  and  _394
REMARK  146  A    between atoms: _394  and  _395
REMARK  147  A    between atoms: _404  and  _406
REMARK  148  A    between atoms: _406  and  _407
REMARK  149  A    between atoms: _409  and  _411
REMARK  150  A    between atoms: _411  and  _412
REMARK  151  A    between atoms: _411  and  _414
REMARK  152  A    between atoms: _414  and  _415
REMARK  153  A    between atoms: _418  and  _420
REMARK  154  A    between atoms: _420  and  _421
REMARK                            x       y       z     vdW  Elec       q    Type
REMARK                         _______ _______ _______ _____ _____    ______ ____
ROOT
ATOM      1  O   HOH     1      31.887  65.531  19.238  0.00  0.00    +0.000 OA
ENDROOT
TORSDOF 0
REMARK  Name = ../refined-set-2016/3d50/3d50_pocket.pdb
REMARK  154 active torsions:
REMARK  status: ('A' for Active; 'I' for Inactive)
REMARK    1  A    between atoms: _1  and  _3
REMARK    2  A    between atoms: _14  and  _17
REMARK    3  A    between atoms: _17  and  _18
REMARK    4  A    between atoms: _25  and  _26
REMARK    5  A    between atoms: _33  and  _34
REMARK    6  A    between atoms: _39  and  _41
REMARK    7  A    between atoms: _41  and  _42
REMARK    8  A    between atoms: _44  and  _46
REMARK    9  A    between atoms: _46  and  _47
REMARK   10  A    between atoms: _46  and  _49
REMARK   11  A    between atoms: _49  and  _50
REMARK   12  A    between atoms: _60  and  _62
REMARK   13  A    between atoms: _62  and  _63
REMARK   14  A    between atoms: _62  and  _65
REMARK   15  A    between atoms: _65  and  _66
REMARK   16  A    between atoms: _69  and  _71
REMARK   17  A    between atoms: _71  and  _72
REMARK   18  A    between atoms: _71  and  _74
REMARK   19  A    between atoms: _74  and  _75
REMARK   20  A    between atoms: _80  and  _81
REMARK   21  A    between atoms: _83  and  _85
REMARK   22  A    between atoms: _85  and  _86
REMARK   23  A    between atoms: _85  and  _88
REMARK   24  A    between atoms: _88  and  _89
REMARK   25  A    between atoms: _89  and  _90
REMARK   26  A    between atoms: _92  and  _94
REMARK   27  A    between atoms: _94  and  _95
REMARK   28  A    between atoms: _94  and  _97
REMARK   29  A    between atoms: _97  and  _98
REMARK   30  A    between atoms: _101  and  _103
REMARK   31  A    between atoms: _103  and  _104
REMARK   32  A    between atoms: _103  and  _106
REMARK   33  A    between atoms: _106  and  _107
REMARK   34  A    between atoms: _107  and  _109
REMARK   35  A    between atoms: _109  and  ZN_423
REMARK   36  A    between atoms: _111  and  _112
REMARK   37  A    between atoms: _117  and  _119
REMARK   38  A    between atoms: _119  and  _120
REMARK   39  A    between atoms: _119  and  _122
REMARK   40  A    between atoms: _122  and  _123
REMARK   41  A    between atoms: _129  and  _131
REMARK   42  A    between atoms: _131  and  _132
REMARK   43  A    between atoms: _131  and  _134
REMARK   44  A    between atoms: _134  and  _135
REMARK   45  A    between atoms: _135  and  _136
REMARK   46  A    between atoms: _136  and  _137
REMARK   47  A    between atoms: _146  and  _148
REMARK   48  A    between atoms: _148  and  _149
REMARK   49  A    between atoms: _148  and  _151
REMARK   50  A    between atoms: _151  and  _152
REMARK   51  A    between atoms: _157  and  _158
REMARK   52  A    between atoms: _160  and  _162
REMARK   53  A    between atoms: _162  and  _163
REMARK   54  A    between atoms: _162  and  _165
REMARK   55  A    between atoms: _165  and  _166
REMARK   56  A    between atoms: _168  and  _170
REMARK   57  A    between atoms: _170  and  _171
REMARK   58  A    between atoms: _170  and  _173
REMARK   59  A    between atoms: _173  and  _174
REMARK   60  A    between atoms: _179  and  _180
REMARK   61  A    between atoms: _182  and  _184
REMARK   62  A    between atoms: _184  and  _185
REMARK   63  A    between atoms: _184  and  _187
REMARK   64  A    between atoms: _187  and  _188
REMARK   65  A    between atoms: _191  and  _193
REMARK   66  A    between atoms: _193  and  _194
REMARK   67  A    between atoms: _193  and  _196
REMARK   68  A    between atoms: _196  and  _197
REMARK   69  A    between atoms: _197  and  _198
REMARK   70  A    between atoms: _198  and  _199
REMARK   71  A    between atoms: _208  and  _210
REMARK   72  A    between atoms: _210  and  _211
REMARK   73  A    between atoms: _210  and  _213
REMARK   74  A    between atoms: _213  and  _214
REMARK   75  A    between atoms: _217  and  _219
REMARK   76  A    between atoms: _219  and  _220
REMARK   77  A    between atoms: _219  and  _222
REMARK   78  A    between atoms: _222  and  _223
REMARK   79  A    between atoms: _226  and  _228
REMARK   80  A    between atoms: _228  and  _229
REMARK   81  A    between atoms: _228  and  _231
REMARK   82  A    between atoms: _231  and  _232
REMARK   83  A    between atoms: _238  and  _240
REMARK   84  A    between atoms: _240  and  _241
REMARK   85  A    between atoms: _240  and  _243
REMARK   86  A    between atoms: _243  and  _244
REMARK   87  A    between atoms: _249  and  _250
REMARK   88  A    between atoms: _252  and  _254
REMARK   89  A    between atoms: _254  and  _255
REMARK   90  A    between atoms: _254  and  _257
REMARK   91  A    between atoms: _257  and  _258
REMARK   92  A    between atoms: _261  and  _263
REMARK   93  A    between atoms: _263  and  _264
REMARK   94  A    between atoms: _263  and  _266
REMARK   95  A    between atoms: _266  and  _267
REMARK   96  A    between atoms: _267  and  _268
REMARK   97  A    between atoms: _268  and  _269
REMARK   98  A    between atoms: _278  and  _280
REMARK   99  A    between atoms: _280  and  _281
REMARK  100  A    between atoms: _280  and  _283
REMARK  101  A    between atoms: _283  and  _284
REMARK  102  A    between atoms: _294  and  _296
REMARK  103  A    between atoms: _296  and  _297
REMARK  104  A    between atoms: _296  and  _299
REMARK  105  A    between atoms: _299  and  _300
REMARK  106  A    between atoms: _305  and  _307
REMARK  107  A    between atoms: _307  and  _308
REMARK  108  A    between atoms: _307  and  _310
REMARK  109  A    between atoms: _310  and  _311
REMARK  110  A    between atoms: _315  and  ZN_423
REMARK  111  A    between atoms: _316  and  _318
REMARK  112  A    between atoms: _318  and  _319
REMARK  113  A    between atoms: _318  and  _321
REMARK  114  A    between atoms: _321  and  _322
REMARK  115  A    between atoms: _325  and  _327
REMARK  116  A    between atoms: _327  and  _328
REMARK  117  A    between atoms: _330  and  _332
REMARK  118  A    between atoms: _332  and  _333
REMARK  119  A    between atoms: _332  and  _335
REMARK  120  A    between atoms: _335  and  _336
REMARK  121  A    between atoms: _339  and  _341
REMARK  122  A    between atoms: _341  and  _342
REMARK  123  A    between atoms: _341  and  _344
REMARK  124  A    between atoms: _344  and  _345
REMARK  125  A    between atoms: _348  and  _350
REMARK  126  A    between atoms: _350  and  _351
REMARK  127  A    between atoms: _354  and  _356
REMARK  128  A    between atoms: _356  and  _357
REMARK  129  A    between atoms: _356  and  _359
REMARK  130  A    between atoms: _359  and  _360
REMARK  131  A    between atoms: _365  and  _366
REMARK  132  A    between atoms: _368  and  _370
REMARK  133  A    between atoms: _370  and  _371
REMARK  134  A    between atoms: _370  and  _373
REMARK  135  A    between atoms: _373  and  _374
REMARK  136  A    between atoms: _377  and  _379
REMARK  137  A    between atoms: _379  and  _380
REMARK  138  A    between atoms: _379  and  _382
REMARK  139  A    between atoms: _382  and  _383
REMARK  140  A    between atoms: _383  and  _384
REMARK  141  A    between atoms: _387  and  _389
REMARK  142  A    between atoms: _389  and  _390
REMARK  143  A    between atoms: _389  and  _392
REMARK  144  A    between atoms: _392  and  _393
REMARK  145  A    between atoms: _393  and  _394
REMARK  146  A    between atoms: _394  and  _395
REMARK  147  A    between atoms: _404  and  _406
REMARK  148  A    between atoms: _406  and  _407
REMARK  149  A    between atoms: _409  and  _411
REMARK  150  A    between atoms: _411  and  _412
REMARK  151  A    between atoms: _411  and  _414
REMARK  152  A    between atoms: _414  and  _415
REMARK  153  A    between atoms: _418  and  _420
REMARK  154  A    between atoms: _420  and  _421
REMARK                            x       y       z     vdW  Elec       q    Type
REMARK                         _______ _______ _______ _____ _____    ______ ____
ROOT
ATOM      1  O   HOH     1      26.225  66.562  19.894  0.00  0.00    +0.000 OA
ENDROOT
TORSDOF 0
REMARK  Name = ../refined-set-2016/3d50/3d50_pocket.pdb
REMARK  154 active torsions:
REMARK  status: ('A' for Active; 'I' for Inactive)
REMARK    1  A    between atoms: _1  and  _3
REMARK    2  A    between atoms: _14  and  _17
REMARK    3  A    between atoms: _17  and  _18
REMARK    4  A    between atoms: _25  and  _26
REMARK    5  A    between atoms: _33  and  _34
REMARK    6  A    between atoms: _39  and  _41
REMARK    7  A    between atoms: _41  and  _42
REMARK    8  A    between atoms: _44  and  _46
REMARK    9  A    between atoms: _46  and  _47
REMARK   10  A    between atoms: _46  and  _49
REMARK   11  A    between atoms: _49  and  _50
REMARK   12  A    between atoms: _60  and  _62
REMARK   13  A    between atoms: _62  and  _63
REMARK   14  A    between atoms: _62  and  _65
REMARK   15  A    between atoms: _65  and  _66
REMARK   16  A    between atoms: _69  and  _71
REMARK   17  A    between atoms: _71  and  _72
REMARK   18  A    between atoms: _71  and  _74
REMARK   19  A    between atoms: _74  and  _75
REMARK   20  A    between atoms: _80  and  _81
REMARK   21  A    between atoms: _83  and  _85
REMARK   22  A    between atoms: _85  and  _86
REMARK   23  A    between atoms: _85  and  _88
REMARK   24  A    between atoms: _88  and  _89
REMARK   25  A    between atoms: _89  and  _90
REMARK   26  A    between atoms: _92  and  _94
REMARK   27  A    between atoms: _94  and  _95
REMARK   28  A    between atoms: _94  and  _97
REMARK   29  A    between atoms: _97  and  _98
REMARK   30  A    between atoms: _101  and  _103
REMARK   31  A    between atoms: _103  and  _104
REMARK   32  A    between atoms: _103  and  _106
REMARK   33  A    between atoms: _106  and  _107
REMARK   34  A    between atoms: _107  and  _109
REMARK   35  A    between atoms: _109  and  ZN_423
REMARK   36  A    between atoms: _111  and  _112
REMARK   37  A    between atoms: _117  and  _119
REMARK   38  A    between atoms: _119  and  _120
REMARK   39  A    between atoms: _119  and  _122
REMARK   40  A    between atoms: _122  and  _123
REMARK   41  A    between atoms: _129  and  _131
REMARK   42  A    between atoms: _131  and  _132
REMARK   43  A    between atoms: _131  and  _134
REMARK   44  A    between atoms: _134  and  _135
REMARK   45  A    between atoms: _135  and  _136
REMARK   46  A    between atoms: _136  and  _137
REMARK   47  A    between atoms: _146  and  _148
REMARK   48  A    between atoms: _148  and  _149
REMARK   49  A    between atoms: _148  and  _151
REMARK   50  A    between atoms: _151  and  _152
REMARK   51  A    between atoms: _157  and  _158
REMARK   52  A    between atoms: _160  and  _162
REMARK   53  A    between atoms: _162  and  _163
REMARK   54  A    between atoms: _162  and  _165
REMARK   55  A    between atoms: _165  and  _166
REMARK   56  A    between atoms: _168  and  _170
REMARK   57  A    between atoms: _170  and  _171
REMARK   58  A    between atoms: _170  and  _173
REMARK   59  A    between atoms: _173  and  _174
REMARK   60  A    between atoms: _179  and  _180
REMARK   61  A    between atoms: _182  and  _184
REMARK   62  A    between atoms: _184  and  _185
REMARK   63  A    between atoms: _184  and  _187
REMARK   64  A    between atoms: _187  and  _188
REMARK   65  A    between atoms: _191  and  _193
REMARK   66  A    between atoms: _193  and  _194
REMARK   67  A    between atoms: _193  and  _196
REMARK   68  A    between atoms: _196  and  _197
REMARK   69  A    between atoms: _197  and  _198
REMARK   70  A    between atoms: _198  and  _199
REMARK   71  A    between atoms: _208  and  _210
REMARK   72  A    between atoms: _210  and  _211
REMARK   73  A    between atoms: _210  and  _213
REMARK   74  A    between atoms: _213  and  _214
REMARK   75  A    between atoms: _217  and  _219
REMARK   76  A    between atoms: _219  and  _220
REMARK   77  A    between atoms: _219  and  _222
REMARK   78  A    between atoms: _222  and  _223
REMARK   79  A    between atoms: _226  and  _228
REMARK   80  A    between atoms: _228  and  _229
REMARK   81  A    between atoms: _228  and  _231
REMARK   82  A    between atoms: _231  and  _232
REMARK   83  A    between atoms: _238  and  _240
REMARK   84  A    between atoms: _240  and  _241
REMARK   85  A    between atoms: _240  and  _243
REMARK   86  A    between atoms: _243  and  _244
REMARK   87  A    between atoms: _249  and  _250
REMARK   88  A    between atoms: _252  and  _254
REMARK   89  A    between atoms: _254  and  _255
REMARK   90  A    between atoms: _254  and  _257
REMARK   91  A    between atoms: _257  and  _258
REMARK   92  A    between atoms: _261  and  _263
REMARK   93  A    between atoms: _263  and  _264
REMARK   94  A    between atoms: _263  and  _266
REMARK   95  A    between atoms: _266  and  _267
REMARK   96  A    between atoms: _267  and  _268
REMARK   97  A    between atoms: _268  and  _269
REMARK   98  A    between atoms: _278  and  _280
REMARK   99  A    between atoms: _280  and  _281
REMARK  100  A    between atoms: _280  and  _283
REMARK  101  A    between atoms: _283  and  _284
REMARK  102  A    between atoms: _294  and  _296
REMARK  103  A    between atoms: _296  and  _297
REMARK  104  A    between atoms: _296  and  _299
REMARK  105  A    between atoms: _299  and  _300
REMARK  106  A    between atoms: _305  and  _307
REMARK  107  A    between atoms: _307  and  _308
REMARK  108  A    between atoms: _307  and  _310
REMARK  109  A    between atoms: _310  and  _311
REMARK  110  A    between atoms: _315  and  ZN_423
REMARK  111  A    between atoms: _316  and  _318
REMARK  112  A    between atoms: _318  and  _319
REMARK  113  A    between atoms: _318  and  _321
REMARK  114  A    between atoms: _321  and  _322
REMARK  115  A    between atoms: _325  and  _327
REMARK  116  A    between atoms: _327  and  _328
REMARK  117  A    between atoms: _330  and  _332
REMARK  118  A    between atoms: _332  and  _333
REMARK  119  A    between atoms: _332  and  _335
REMARK  120  A    between atoms: _335  and  _336
REMARK  121  A    between atoms: _339  and  _341
REMARK  122  A    between atoms: _341  and  _342
REMARK  123  A    between atoms: _341  and  _344
REMARK  124  A    between atoms: _344  and  _345
REMARK  125  A    between atoms: _348  and  _350
REMARK  126  A    between atoms: _350  and  _351
REMARK  127  A    between atoms: _354  and  _356
REMARK  128  A    between atoms: _356  and  _357
REMARK  129  A    between atoms: _356  and  _359
REMARK  130  A    between atoms: _359  and  _360
REMARK  131  A    between atoms: _365  and  _366
REMARK  132  A    between atoms: _368  and  _370
REMARK  133  A    between atoms: _370  and  _371
REMARK  134  A    between atoms: _370  and  _373
REMARK  135  A    between atoms: _373  and  _374
REMARK  136  A    between atoms: _377  and  _379
REMARK  137  A    between atoms: _379  and  _380
REMARK  138  A    between atoms: _379  and  _382
REMARK  139  A    between atoms: _382  and  _383
REMARK  140  A    between atoms: _383  and  _384
REMARK  141  A    between atoms: _387  and  _389
REMARK  142  A    between atoms: _389  and  _390
REMARK  143  A    between atoms: _389  and  _392
REMARK  144  A    between atoms: _392  and  _393
REMARK  145  A    between atoms: _393  and  _394
REMARK  146  A    between atoms: _394  and  _395
REMARK  147  A    between atoms: _404  and  _406
REMARK  148  A    between atoms: _406  and  _407
REMARK  149  A    between atoms: _409  and  _411
REMARK  150  A    between atoms: _411  and  _412
REMARK  151  A    between atoms: _411  and  _414
REMARK  152  A    between atoms: _414  and  _415
REMARK  153  A    between atoms: _418  and  _420
REMARK  154  A    between atoms: _420  and  _421
REMARK                            x       y       z     vdW  Elec       q    Type
REMARK                         _______ _______ _______ _____ _____    ______ ____
ROOT
ATOM      1  O   HOH     1      25.424  66.033  17.609  0.00  0.00    +0.000 OA
ENDROOT
TORSDOF 0
REMARK  Name = ../refined-set-2016/3d50/3d50_pocket.pdb
REMARK  154 active torsions:
REMARK  status: ('A' for Active; 'I' for Inactive)
REMARK    1  A    between atoms: _1  and  _3
REMARK    2  A    between atoms: _14  and  _17
REMARK    3  A    between atoms: _17  and  _18
REMARK    4  A    between atoms: _25  and  _26
REMARK    5  A    between atoms: _33  and  _34
REMARK    6  A    between atoms: _39  and  _41
REMARK    7  A    between atoms: _41  and  _42
REMARK    8  A    between atoms: _44  and  _46
REMARK    9  A    between atoms: _46  and  _47
REMARK   10  A    between atoms: _46  and  _49
REMARK   11  A    between atoms: _49  and  _50
REMARK   12  A    between atoms: _60  and  _62
REMARK   13  A    between atoms: _62  and  _63
REMARK   14  A    between atoms: _62  and  _65
REMARK   15  A    between atoms: _65  and  _66
REMARK   16  A    between atoms: _69  and  _71
REMARK   17  A    between atoms: _71  and  _72
REMARK   18  A    between atoms: _71  and  _74
REMARK   19  A    between atoms: _74  and  _75
REMARK   20  A    between atoms: _80  and  _81
REMARK   21  A    between atoms: _83  and  _85
REMARK   22  A    between atoms: _85  and  _86
REMARK   23  A    between atoms: _85  and  _88
REMARK   24  A    between atoms: _88  and  _89
REMARK   25  A    between atoms: _89  and  _90
REMARK   26  A    between atoms: _92  and  _94
REMARK   27  A    between atoms: _94  and  _95
REMARK   28  A    between atoms: _94  and  _97
REMARK   29  A    between atoms: _97  and  _98
REMARK   30  A    between atoms: _101  and  _103
REMARK   31  A    between atoms: _103  and  _104
REMARK   32  A    between atoms: _103  and  _106
REMARK   33  A    between atoms: _106  and  _107
REMARK   34  A    between atoms: _107  and  _109
REMARK   35  A    between atoms: _109  and  ZN_423
REMARK   36  A    between atoms: _111  and  _112
REMARK   37  A    between atoms: _117  and  _119
REMARK   38  A    between atoms: _119  and  _120
REMARK   39  A    between atoms: _119  and  _122
REMARK   40  A    between atoms: _122  and  _123
REMARK   41  A    between atoms: _129  and  _131
REMARK   42  A    between atoms: _131  and  _132
REMARK   43  A    between atoms: _131  and  _134
REMARK   44  A    between atoms: _134  and  _135
REMARK   45  A    between atoms: _135  and  _136
REMARK   46  A    between atoms: _136  and  _137
REMARK   47  A    between atoms: _146  and  _148
REMARK   48  A    between atoms: _148  and  _149
REMARK   49  A    between atoms: _148  and  _151
REMARK   50  A    between atoms: _151  and  _152
REMARK   51  A    between atoms: _157  and  _158
REMARK   52  A    between atoms: _160  and  _162
REMARK   53  A    between atoms: _162  and  _163
REMARK   54  A    between atoms: _162  and  _165
REMARK   55  A    between atoms: _165  and  _166
REMARK   56  A    between atoms: _168  and  _170
REMARK   57  A    between atoms: _170  and  _171
REMARK   58  A    between atoms: _170  and  _173
REMARK   59  A    between atoms: _173  and  _174
REMARK   60  A    between atoms: _179  and  _180
REMARK   61  A    between atoms: _182  and  _184
REMARK   62  A    between atoms: _184  and  _185
REMARK   63  A    between atoms: _184  and  _187
REMARK   64  A    between atoms: _187  and  _188
REMARK   65  A    between atoms: _191  and  _193
REMARK   66  A    between atoms: _193  and  _194
REMARK   67  A    between atoms: _193  and  _196
REMARK   68  A    between atoms: _196  and  _197
REMARK   69  A    between atoms: _197  and  _198
REMARK   70  A    between atoms: _198  and  _199
REMARK   71  A    between atoms: _208  and  _210
REMARK   72  A    between atoms: _210  and  _211
REMARK   73  A    between atoms: _210  and  _213
REMARK   74  A    between atoms: _213  and  _214
REMARK   75  A    between atoms: _217  and  _219
REMARK   76  A    between atoms: _219  and  _220
REMARK   77  A    between atoms: _219  and  _222
REMARK   78  A    between atoms: _222  and  _223
REMARK   79  A    between atoms: _226  and  _228
REMARK   80  A    between atoms: _228  and  _229
REMARK   81  A    between atoms: _228  and  _231
REMARK   82  A    between atoms: _231  and  _232
REMARK   83  A    between atoms: _238  and  _240
REMARK   84  A    between atoms: _240  and  _241
REMARK   85  A    between atoms: _240  and  _243
REMARK   86  A    between atoms: _243  and  _244
REMARK   87  A    between atoms: _249  and  _250
REMARK   88  A    between atoms: _252  and  _254
REMARK   89  A    between atoms: _254  and  _255
REMARK   90  A    between atoms: _254  and  _257
REMARK   91  A    between atoms: _257  and  _258
REMARK   92  A    between atoms: _261  and  _263
REMARK   93  A    between atoms: _263  and  _264
REMARK   94  A    between atoms: _263  and  _266
REMARK   95  A    between atoms: _266  and  _267
REMARK   96  A    between atoms: _267  and  _268
REMARK   97  A    between atoms: _268  and  _269
REMARK   98  A    between atoms: _278  and  _280
REMARK   99  A    between atoms: _280  and  _281
REMARK  100  A    between atoms: _280  and  _283
REMARK  101  A    between atoms: _283  and  _284
REMARK  102  A    between atoms: _294  and  _296
REMARK  103  A    between atoms: _296  and  _297
REMARK  104  A    between atoms: _296  and  _299
REMARK  105  A    between atoms: _299  and  _300
REMARK  106  A    between atoms: _305  and  _307
REMARK  107  A    between atoms: _307  and  _308
REMARK  108  A    between atoms: _307  and  _310
REMARK  109  A    between atoms: _310  and  _311
REMARK  110  A    between atoms: _315  and  ZN_423
REMARK  111  A    between atoms: _316  and  _318
REMARK  112  A    between atoms: _318  and  _319
REMARK  113  A    between atoms: _318  and  _321
REMARK  114  A    between atoms: _321  and  _322
REMARK  115  A    between atoms: _325  and  _327
REMARK  116  A    between atoms: _327  and  _328
REMARK  117  A    between atoms: _330  and  _332
REMARK  118  A    between atoms: _332  and  _333
REMARK  119  A    between atoms: _332  and  _335
REMARK  120  A    between atoms: _335  and  _336
REMARK  121  A    between atoms: _339  and  _341
REMARK  122  A    between atoms: _341  and  _342
REMARK  123  A    between atoms: _341  and  _344
REMARK  124  A    between atoms: _344  and  _345
REMARK  125  A    between atoms: _348  and  _350
REMARK  126  A    between atoms: _350  and  _351
REMARK  127  A    between atoms: _354  and  _356
REMARK  128  A    between atoms: _356  and  _357
REMARK  129  A    between atoms: _356  and  _359
REMARK  130  A    between atoms: _359  and  _360
REMARK  131  A    between atoms: _365  and  _366
REMARK  132  A    between atoms: _368  and  _370
REMARK  133  A    between atoms: _370  and  _371
REMARK  134  A    between atoms: _370  and  _373
REMARK  135  A    between atoms: _373  and  _374
REMARK  136  A    between atoms: _377  and  _379
REMARK  137  A    between atoms: _379  and  _380
REMARK  138  A    between atoms: _379  and  _382
REMARK  139  A    between atoms: _382  and  _383
REMARK  140  A    between atoms: _383  and  _384
REMARK  141  A    between atoms: _387  and  _389
REMARK  142  A    between atoms: _389  and  _390
REMARK  143  A    between atoms: _389  and  _392
REMARK  144  A    between atoms: _392  and  _393
REMARK  145  A    between atoms: _393  and  _394
REMARK  146  A    between atoms: _394  and  _395
REMARK  147  A    between atoms: _404  and  _406
REMARK  148  A    between atoms: _406  and  _407
REMARK  149  A    between atoms: _409  and  _411
REMARK  150  A    between atoms: _411  and  _412
REMARK  151  A    between atoms: _411  and  _414
REMARK  152  A    between atoms: _414  and  _415
REMARK  153  A    between atoms: _418  and  _420
REMARK  154  A    between atoms: _420  and  _421
REMARK                            x       y       z     vdW  Elec       q    Type
REMARK                         _______ _______ _______ _____ _____    ______ ____
ROOT
ATOM      1  O   HOH     1      26.399  63.616  17.144  0.00  0.00    +0.000 OA
ENDROOT
TORSDOF 0
REMARK  Name = ../refined-set-2016/3d50/3d50_pocket.pdb
REMARK  154 active torsions:
REMARK  status: ('A' for Active; 'I' for Inactive)
REMARK    1  A    between atoms: _1  and  _3
REMARK    2  A    between atoms: _14  and  _17
REMARK    3  A    between atoms: _17  and  _18
REMARK    4  A    between atoms: _25  and  _26
REMARK    5  A    between atoms: _33  and  _34
REMARK    6  A    between atoms: _39  and  _41
REMARK    7  A    between atoms: _41  and  _42
REMARK    8  A    between atoms: _44  and  _46
REMARK    9  A    between atoms: _46  and  _47
REMARK   10  A    between atoms: _46  and  _49
REMARK   11  A    between atoms: _49  and  _50
REMARK   12  A    between atoms: _60  and  _62
REMARK   13  A    between atoms: _62  and  _63
REMARK   14  A    between atoms: _62  and  _65
REMARK   15  A    between atoms: _65  and  _66
REMARK   16  A    between atoms: _69  and  _71
REMARK   17  A    between atoms: _71  and  _72
REMARK   18  A    between atoms: _71  and  _74
REMARK   19  A    between atoms: _74  and  _75
REMARK   20  A    between atoms: _80  and  _81
REMARK   21  A    between atoms: _83  and  _85
REMARK   22  A    between atoms: _85  and  _86
REMARK   23  A    between atoms: _85  and  _88
REMARK   24  A    between atoms: _88  and  _89
REMARK   25  A    between atoms: _89  and  _90
REMARK   26  A    between atoms: _92  and  _94
REMARK   27  A    between atoms: _94  and  _95
REMARK   28  A    between atoms: _94  and  _97
REMARK   29  A    between atoms: _97  and  _98
REMARK   30  A    between atoms: _101  and  _103
REMARK   31  A    between atoms: _103  and  _104
REMARK   32  A    between atoms: _103  and  _106
REMARK   33  A    between atoms: _106  and  _107
REMARK   34  A    between atoms: _107  and  _109
REMARK   35  A    between atoms: _109  and  ZN_423
REMARK   36  A    between atoms: _111  and  _112
REMARK   37  A    between atoms: _117  and  _119
REMARK   38  A    between atoms: _119  and  _120
REMARK   39  A    between atoms: _119  and  _122
REMARK   40  A    between atoms: _122  and  _123
REMARK   41  A    between atoms: _129  and  _131
REMARK   42  A    between atoms: _131  and  _132
REMARK   43  A    between atoms: _131  and  _134
REMARK   44  A    between atoms: _134  and  _135
REMARK   45  A    between atoms: _135  and  _136
REMARK   46  A    between atoms: _136  and  _137
REMARK   47  A    between atoms: _146  and  _148
REMARK   48  A    between atoms: _148  and  _149
REMARK   49  A    between atoms: _148  and  _151
REMARK   50  A    between atoms: _151  and  _152
REMARK   51  A    between atoms: _157  and  _158
REMARK   52  A    between atoms: _160  and  _162
REMARK   53  A    between atoms: _162  and  _163
REMARK   54  A    between atoms: _162  and  _165
REMARK   55  A    between atoms: _165  and  _166
REMARK   56  A    between atoms: _168  and  _170
REMARK   57  A    between atoms: _170  and  _171
REMARK   58  A    between atoms: _170  and  _173
REMARK   59  A    between atoms: _173  and  _174
REMARK   60  A    between atoms: _179  and  _180
REMARK   61  A    between atoms: _182  and  _184
REMARK   62  A    between atoms: _184  and  _185
REMARK   63  A    between atoms: _184  and  _187
REMARK   64  A    between atoms: _187  and  _188
REMARK   65  A    between atoms: _191  and  _193
REMARK   66  A    between atoms: _193  and  _194
REMARK   67  A    between atoms: _193  and  _196
REMARK   68  A    between atoms: _196  and  _197
REMARK   69  A    between atoms: _197  and  _198
REMARK   70  A    between atoms: _198  and  _199
REMARK   71  A    between atoms: _208  and  _210
REMARK   72  A    between atoms: _210  and  _211
REMARK   73  A    between atoms: _210  and  _213
REMARK   74  A    between atoms: _213  and  _214
REMARK   75  A    between atoms: _217  and  _219
REMARK   76  A    between atoms: _219  and  _220
REMARK   77  A    between atoms: _219  and  _222
REMARK   78  A    between atoms: _222  and  _223
REMARK   79  A    between atoms: _226  and  _228
REMARK   80  A    between atoms: _228  and  _229
REMARK   81  A    between atoms: _228  and  _231
REMARK   82  A    between atoms: _231  and  _232
REMARK   83  A    between atoms: _238  and  _240
REMARK   84  A    between atoms: _240  and  _241
REMARK   85  A    between atoms: _240  and  _243
REMARK   86  A    between atoms: _243  and  _244
REMARK   87  A    between atoms: _249  and  _250
REMARK   88  A    between atoms: _252  and  _254
REMARK   89  A    between atoms: _254  and  _255
REMARK   90  A    between atoms: _254  and  _257
REMARK   91  A    between atoms: _257  and  _258
REMARK   92  A    between atoms: _261  and  _263
REMARK   93  A    between atoms: _263  and  _264
REMARK   94  A    between atoms: _263  and  _266
REMARK   95  A    between atoms: _266  and  _267
REMARK   96  A    between atoms: _267  and  _268
REMARK   97  A    between atoms: _268  and  _269
REMARK   98  A    between atoms: _278  and  _280
REMARK   99  A    between atoms: _280  and  _281
REMARK  100  A    between atoms: _280  and  _283
REMARK  101  A    between atoms: _283  and  _284
REMARK  102  A    between atoms: _294  and  _296
REMARK  103  A    between atoms: _296  and  _297
REMARK  104  A    between atoms: _296  and  _299
REMARK  105  A    between atoms: _299  and  _300
REMARK  106  A    between atoms: _305  and  _307
REMARK  107  A    between atoms: _307  and  _308
REMARK  108  A    between atoms: _307  and  _310
REMARK  109  A    between atoms: _310  and  _311
REMARK  110  A    between atoms: _315  and  ZN_423
REMARK  111  A    between atoms: _316  and  _318
REMARK  112  A    between atoms: _318  and  _319
REMARK  113  A    between atoms: _318  and  _321
REMARK  114  A    between atoms: _321  and  _322
REMARK  115  A    between atoms: _325  and  _327
REMARK  116  A    between atoms: _327  and  _328
REMARK  117  A    between atoms: _330  and  _332
REMARK  118  A    between atoms: _332  and  _333
REMARK  119  A    between atoms: _332  and  _335
REMARK  120  A    between atoms: _335  and  _336
REMARK  121  A    between atoms: _339  and  _341
REMARK  122  A    between atoms: _341  and  _342
REMARK  123  A    between atoms: _341  and  _344
REMARK  124  A    between atoms: _344  and  _345
REMARK  125  A    between atoms: _348  and  _350
REMARK  126  A    between atoms: _350  and  _351
REMARK  127  A    between atoms: _354  and  _356
REMARK  128  A    between atoms: _356  and  _357
REMARK  129  A    between atoms: _356  and  _359
REMARK  130  A    between atoms: _359  and  _360
REMARK  131  A    between atoms: _365  and  _366
REMARK  132  A    between atoms: _368  and  _370
REMARK  133  A    between atoms: _370  and  _371
REMARK  134  A    between atoms: _370  and  _373
REMARK  135  A    between atoms: _373  and  _374
REMARK  136  A    between atoms: _377  and  _379
REMARK  137  A    between atoms: _379  and  _380
REMARK  138  A    between atoms: _379  and  _382
REMARK  139  A    between atoms: _382  and  _383
REMARK  140  A    between atoms: _383  and  _384
REMARK  141  A    between atoms: _387  and  _389
REMARK  142  A    between atoms: _389  and  _390
REMARK  143  A    between atoms: _389  and  _392
REMARK  144  A    between atoms: _392  and  _393
REMARK  145  A    between atoms: _393  and  _394
REMARK  146  A    between atoms: _394  and  _395
REMARK  147  A    between atoms: _404  and  _406
REMARK  148  A    between atoms: _406  and  _407
REMARK  149  A    between atoms: _409  and  _411
REMARK  150  A    between atoms: _411  and  _412
REMARK  151  A    between atoms: _411  and  _414
REMARK  152  A    between atoms: _414  and  _415
REMARK  153  A    between atoms: _418  and  _420
REMARK  154  A    between atoms: _420  and  _421
REMARK                            x       y       z     vdW  Elec       q    Type
REMARK                         _______ _______ _______ _____ _____    ______ ____
ROOT
ATOM      1  O   HOH     1      22.836  62.760  17.211  0.00  0.00    +0.000 OA
ENDROOT
TORSDOF 0
REMARK  Name = ../refined-set-2016/3d50/3d50_pocket.pdb
REMARK  154 active torsions:
REMARK  status: ('A' for Active; 'I' for Inactive)
REMARK    1  A    between atoms: _1  and  _3
REMARK    2  A    between atoms: _14  and  _17
REMARK    3  A    between atoms: _17  and  _18
REMARK    4  A    between atoms: _25  and  _26
REMARK    5  A    between atoms: _33  and  _34
REMARK    6  A    between atoms: _39  and  _41
REMARK    7  A    between atoms: _41  and  _42
REMARK    8  A    between atoms: _44  and  _46
REMARK    9  A    between atoms: _46  and  _47
REMARK   10  A    between atoms: _46  and  _49
REMARK   11  A    between atoms: _49  and  _50
REMARK   12  A    between atoms: _60  and  _62
REMARK   13  A    between atoms: _62  and  _63
REMARK   14  A    between atoms: _62  and  _65
REMARK   15  A    between atoms: _65  and  _66
REMARK   16  A    between atoms: _69  and  _71
REMARK   17  A    between atoms: _71  and  _72
REMARK   18  A    between atoms: _71  and  _74
REMARK   19  A    between atoms: _74  and  _75
REMARK   20  A    between atoms: _80  and  _81
REMARK   21  A    between atoms: _83  and  _85
REMARK   22  A    between atoms: _85  and  _86
REMARK   23  A    between atoms: _85  and  _88
REMARK   24  A    between atoms: _88  and  _89
REMARK   25  A    between atoms: _89  and  _90
REMARK   26  A    between atoms: _92  and  _94
REMARK   27  A    between atoms: _94  and  _95
REMARK   28  A    between atoms: _94  and  _97
REMARK   29  A    between atoms: _97  and  _98
REMARK   30  A    between atoms: _101  and  _103
REMARK   31  A    between atoms: _103  and  _104
REMARK   32  A    between atoms: _103  and  _106
REMARK   33  A    between atoms: _106  and  _107
REMARK   34  A    between atoms: _107  and  _109
REMARK   35  A    between atoms: _109  and  ZN_423
REMARK   36  A    between atoms: _111  and  _112
REMARK   37  A    between atoms: _117  and  _119
REMARK   38  A    between atoms: _119  and  _120
REMARK   39  A    between atoms: _119  and  _122
REMARK   40  A    between atoms: _122  and  _123
REMARK   41  A    between atoms: _129  and  _131
REMARK   42  A    between atoms: _131  and  _132
REMARK   43  A    between atoms: _131  and  _134
REMARK   44  A    between atoms: _134  and  _135
REMARK   45  A    between atoms: _135  and  _136
REMARK   46  A    between atoms: _136  and  _137
REMARK   47  A    between atoms: _146  and  _148
REMARK   48  A    between atoms: _148  and  _149
REMARK   49  A    between atoms: _148  and  _151
REMARK   50  A    between atoms: _151  and  _152
REMARK   51  A    between atoms: _157  and  _158
REMARK   52  A    between atoms: _160  and  _162
REMARK   53  A    between atoms: _162  and  _163
REMARK   54  A    between atoms: _162  and  _165
REMARK   55  A    between atoms: _165  and  _166
REMARK   56  A    between atoms: _168  and  _170
REMARK   57  A    between atoms: _170  and  _171
REMARK   58  A    between atoms: _170  and  _173
REMARK   59  A    between atoms: _173  and  _174
REMARK   60  A    between atoms: _179  and  _180
REMARK   61  A    between atoms: _182  and  _184
REMARK   62  A    between atoms: _184  and  _185
REMARK   63  A    between atoms: _184  and  _187
REMARK   64  A    between atoms: _187  and  _188
REMARK   65  A    between atoms: _191  and  _193
REMARK   66  A    between atoms: _193  and  _194
REMARK   67  A    between atoms: _193  and  _196
REMARK   68  A    between atoms: _196  and  _197
REMARK   69  A    between atoms: _197  and  _198
REMARK   70  A    between atoms: _198  and  _199
REMARK   71  A    between atoms: _208  and  _210
REMARK   72  A    between atoms: _210  and  _211
REMARK   73  A    between atoms: _210  and  _213
REMARK   74  A    between atoms: _213  and  _214
REMARK   75  A    between atoms: _217  and  _219
REMARK   76  A    between atoms: _219  and  _220
REMARK   77  A    between atoms: _219  and  _222
REMARK   78  A    between atoms: _222  and  _223
REMARK   79  A    between atoms: _226  and  _228
REMARK   80  A    between atoms: _228  and  _229
REMARK   81  A    between atoms: _228  and  _231
REMARK   82  A    between atoms: _231  and  _232
REMARK   83  A    between atoms: _238  and  _240
REMARK   84  A    between atoms: _240  and  _241
REMARK   85  A    between atoms: _240  and  _243
REMARK   86  A    between atoms: _243  and  _244
REMARK   87  A    between atoms: _249  and  _250
REMARK   88  A    between atoms: _252  and  _254
REMARK   89  A    between atoms: _254  and  _255
REMARK   90  A    between atoms: _254  and  _257
REMARK   91  A    between atoms: _257  and  _258
REMARK   92  A    between atoms: _261  and  _263
REMARK   93  A    between atoms: _263  and  _264
REMARK   94  A    between atoms: _263  and  _266
REMARK   95  A    between atoms: _266  and  _267
REMARK   96  A    between atoms: _267  and  _268
REMARK   97  A    between atoms: _268  and  _269
REMARK   98  A    between atoms: _278  and  _280
REMARK   99  A    between atoms: _280  and  _281
REMARK  100  A    between atoms: _280  and  _283
REMARK  101  A    between atoms: _283  and  _284
REMARK  102  A    between atoms: _294  and  _296
REMARK  103  A    between atoms: _296  and  _297
REMARK  104  A    between atoms: _296  and  _299
REMARK  105  A    between atoms: _299  and  _300
REMARK  106  A    between atoms: _305  and  _307
REMARK  107  A    between atoms: _307  and  _308
REMARK  108  A    between atoms: _307  and  _310
REMARK  109  A    between atoms: _310  and  _311
REMARK  110  A    between atoms: _315  and  ZN_423
REMARK  111  A    between atoms: _316  and  _318
REMARK  112  A    between atoms: _318  and  _319
REMARK  113  A    between atoms: _318  and  _321
REMARK  114  A    between atoms: _321  and  _322
REMARK  115  A    between atoms: _325  and  _327
REMARK  116  A    between atoms: _327  and  _328
REMARK  117  A    between atoms: _330  and  _332
REMARK  118  A    between atoms: _332  and  _333
REMARK  119  A    between atoms: _332  and  _335
REMARK  120  A    between atoms: _335  and  _336
REMARK  121  A    between atoms: _339  and  _341
REMARK  122  A    between atoms: _341  and  _342
REMARK  123  A    between atoms: _341  and  _344
REMARK  124  A    between atoms: _344  and  _345
REMARK  125  A    between atoms: _348  and  _350
REMARK  126  A    between atoms: _350  and  _351
REMARK  127  A    between atoms: _354  and  _356
REMARK  128  A    between atoms: _356  and  _357
REMARK  129  A    between atoms: _356  and  _359
REMARK  130  A    between atoms: _359  and  _360
REMARK  131  A    between atoms: _365  and  _366
REMARK  132  A    between atoms: _368  and  _370
REMARK  133  A    between atoms: _370  and  _371
REMARK  134  A    between atoms: _370  and  _373
REMARK  135  A    between atoms: _373  and  _374
REMARK  136  A    between atoms: _377  and  _379
REMARK  137  A    between atoms: _379  and  _380
REMARK  138  A    between atoms: _379  and  _382
REMARK  139  A    between atoms: _382  and  _383
REMARK  140  A    between atoms: _383  and  _384
REMARK  141  A    between atoms: _387  and  _389
REMARK  142  A    between atoms: _389  and  _390
REMARK  143  A    between atoms: _389  and  _392
REMARK  144  A    between atoms: _392  and  _393
REMARK  145  A    between atoms: _393  and  _394
REMARK  146  A    between atoms: _394  and  _395
REMARK  147  A    between atoms: _404  and  _406
REMARK  148  A    between atoms: _406  and  _407
REMARK  149  A    between atoms: _409  and  _411
REMARK  150  A    between atoms: _411  and  _412
REMARK  151  A    between atoms: _411  and  _414
REMARK  152  A    between atoms: _414  and  _415
REMARK  153  A    between atoms: _418  and  _420
REMARK  154  A    between atoms: _420  and  _421
REMARK                            x       y       z     vdW  Elec       q    Type
REMARK                         _______ _______ _______ _____ _____    ______ ____
ROOT
ATOM      1  O   HOH     1      22.862  64.833  18.682  0.00  0.00    +0.000 OA
ENDROOT
TORSDOF 0
REMARK  Name = ../refined-set-2016/3d50/3d50_pocket.pdb
REMARK  154 active torsions:
REMARK  status: ('A' for Active; 'I' for Inactive)
REMARK    1  A    between atoms: _1  and  _3
REMARK    2  A    between atoms: _14  and  _17
REMARK    3  A    between atoms: _17  and  _18
REMARK    4  A    between atoms: _25  and  _26
REMARK    5  A    between atoms: _33  and  _34
REMARK    6  A    between atoms: _39  and  _41
REMARK    7  A    between atoms: _41  and  _42
REMARK    8  A    between atoms: _44  and  _46
REMARK    9  A    between atoms: _46  and  _47
REMARK   10  A    between atoms: _46  and  _49
REMARK   11  A    between atoms: _49  and  _50
REMARK   12  A    between atoms: _60  and  _62
REMARK   13  A    between atoms: _62  and  _63
REMARK   14  A    between atoms: _62  and  _65
REMARK   15  A    between atoms: _65  and  _66
REMARK   16  A    between atoms: _69  and  _71
REMARK   17  A    between atoms: _71  and  _72
REMARK   18  A    between atoms: _71  and  _74
REMARK   19  A    between atoms: _74  and  _75
REMARK   20  A    between atoms: _80  and  _81
REMARK   21  A    between atoms: _83  and  _85
REMARK   22  A    between atoms: _85  and  _86
REMARK   23  A    between atoms: _85  and  _88
REMARK   24  A    between atoms: _88  and  _89
REMARK   25  A    between atoms: _89  and  _90
REMARK   26  A    between atoms: _92  and  _94
REMARK   27  A    between atoms: _94  and  _95
REMARK   28  A    between atoms: _94  and  _97
REMARK   29  A    between atoms: _97  and  _98
REMARK   30  A    between atoms: _101  and  _103
REMARK   31  A    between atoms: _103  and  _104
REMARK   32  A    between atoms: _103  and  _106
REMARK   33  A    between atoms: _106  and  _107
REMARK   34  A    between atoms: _107  and  _109
REMARK   35  A    between atoms: _109  and  ZN_423
REMARK   36  A    between atoms: _111  and  _112
REMARK   37  A    between atoms: _117  and  _119
REMARK   38  A    between atoms: _119  and  _120
REMARK   39  A    between atoms: _119  and  _122
REMARK   40  A    between atoms: _122  and  _123
REMARK   41  A    between atoms: _129  and  _131
REMARK   42  A    between atoms: _131  and  _132
REMARK   43  A    between atoms: _131  and  _134
REMARK   44  A    between atoms: _134  and  _135
REMARK   45  A    between atoms: _135  and  _136
REMARK   46  A    between atoms: _136  and  _137
REMARK   47  A    between atoms: _146  and  _148
REMARK   48  A    between atoms: _148  and  _149
REMARK   49  A    between atoms: _148  and  _151
REMARK   50  A    between atoms: _151  and  _152
REMARK   51  A    between atoms: _157  and  _158
REMARK   52  A    between atoms: _160  and  _162
REMARK   53  A    between atoms: _162  and  _163
REMARK   54  A    between atoms: _162  and  _165
REMARK   55  A    between atoms: _165  and  _166
REMARK   56  A    between atoms: _168  and  _170
REMARK   57  A    between atoms: _170  and  _171
REMARK   58  A    between atoms: _170  and  _173
REMARK   59  A    between atoms: _173  and  _174
REMARK   60  A    between atoms: _179  and  _180
REMARK   61  A    between atoms: _182  and  _184
REMARK   62  A    between atoms: _184  and  _185
REMARK   63  A    between atoms: _184  and  _187
REMARK   64  A    between atoms: _187  and  _188
REMARK   65  A    between atoms: _191  and  _193
REMARK   66  A    between atoms: _193  and  _194
REMARK   67  A    between atoms: _193  and  _196
REMARK   68  A    between atoms: _196  and  _197
REMARK   69  A    between atoms: _197  and  _198
REMARK   70  A    between atoms: _198  and  _199
REMARK   71  A    between atoms: _208  and  _210
REMARK   72  A    between atoms: _210  and  _211
REMARK   73  A    between atoms: _210  and  _213
REMARK   74  A    between atoms: _213  and  _214
REMARK   75  A    between atoms: _217  and  _219
REMARK   76  A    between atoms: _219  and  _220
REMARK   77  A    between atoms: _219  and  _222
REMARK   78  A    between atoms: _222  and  _223
REMARK   79  A    between atoms: _226  and  _228
REMARK   80  A    between atoms: _228  and  _229
REMARK   81  A    between atoms: _228  and  _231
REMARK   82  A    between atoms: _231  and  _232
REMARK   83  A    between atoms: _238  and  _240
REMARK   84  A    between atoms: _240  and  _241
REMARK   85  A    between atoms: _240  and  _243
REMARK   86  A    between atoms: _243  and  _244
REMARK   87  A    between atoms: _249  and  _250
REMARK   88  A    between atoms: _252  and  _254
REMARK   89  A    between atoms: _254  and  _255
REMARK   90  A    between atoms: _254  and  _257
REMARK   91  A    between atoms: _257  and  _258
REMARK   92  A    between atoms: _261  and  _263
REMARK   93  A    between atoms: _263  and  _264
REMARK   94  A    between atoms: _263  and  _266
REMARK   95  A    between atoms: _266  and  _267
REMARK   96  A    between atoms: _267  and  _268
REMARK   97  A    between atoms: _268  and  _269
REMARK   98  A    between atoms: _278  and  _280
REMARK   99  A    between atoms: _280  and  _281
REMARK  100  A    between atoms: _280  and  _283
REMARK  101  A    between atoms: _283  and  _284
REMARK  102  A    between atoms: _294  and  _296
REMARK  103  A    between atoms: _296  and  _297
REMARK  104  A    between atoms: _296  and  _299
REMARK  105  A    between atoms: _299  and  _300
REMARK  106  A    between atoms: _305  and  _307
REMARK  107  A    between atoms: _307  and  _308
REMARK  108  A    between atoms: _307  and  _310
REMARK  109  A    between atoms: _310  and  _311
REMARK  110  A    between atoms: _315  and  ZN_423
REMARK  111  A    between atoms: _316  and  _318
REMARK  112  A    between atoms: _318  and  _319
REMARK  113  A    between atoms: _318  and  _321
REMARK  114  A    between atoms: _321  and  _322
REMARK  115  A    between atoms: _325  and  _327
REMARK  116  A    between atoms: _327  and  _328
REMARK  117  A    between atoms: _330  and  _332
REMARK  118  A    between atoms: _332  and  _333
REMARK  119  A    between atoms: _332  and  _335
REMARK  120  A    between atoms: _335  and  _336
REMARK  121  A    between atoms: _339  and  _341
REMARK  122  A    between atoms: _341  and  _342
REMARK  123  A    between atoms: _341  and  _344
REMARK  124  A    between atoms: _344  and  _345
REMARK  125  A    between atoms: _348  and  _350
REMARK  126  A    between atoms: _350  and  _351
REMARK  127  A    between atoms: _354  and  _356
REMARK  128  A    between atoms: _356  and  _357
REMARK  129  A    between atoms: _356  and  _359
REMARK  130  A    between atoms: _359  and  _360
REMARK  131  A    between atoms: _365  and  _366
REMARK  132  A    between atoms: _368  and  _370
REMARK  133  A    between atoms: _370  and  _371
REMARK  134  A    between atoms: _370  and  _373
REMARK  135  A    between atoms: _373  and  _374
REMARK  136  A    between atoms: _377  and  _379
REMARK  137  A    between atoms: _379  and  _380
REMARK  138  A    between atoms: _379  and  _382
REMARK  139  A    between atoms: _382  and  _383
REMARK  140  A    between atoms: _383  and  _384
REMARK  141  A    between atoms: _387  and  _389
REMARK  142  A    between atoms: _389  and  _390
REMARK  143  A    between atoms: _389  and  _392
REMARK  144  A    between atoms: _392  and  _393
REMARK  145  A    between atoms: _393  and  _394
REMARK  146  A    between atoms: _394  and  _395
REMARK  147  A    between atoms: _404  and  _406
REMARK  148  A    between atoms: _406  and  _407
REMARK  149  A    between atoms: _409  and  _411
REMARK  150  A    between atoms: _411  and  _412
REMARK  151  A    between atoms: _411  and  _414
REMARK  152  A    between atoms: _414  and  _415
REMARK  153  A    between atoms: _418  and  _420
REMARK  154  A    between atoms: _420  and  _421
REMARK                            x       y       z     vdW  Elec       q    Type
REMARK                         _______ _______ _______ _____ _____    ______ ____
ROOT
ATOM      1  O   HOH     1      21.091  63.537  15.148  0.00  0.00    +0.000 OA
ENDROOT
TORSDOF 0
REMARK  Name = ../refined-set-2016/3d50/3d50_pocket.pdb
REMARK  154 active torsions:
REMARK  status: ('A' for Active; 'I' for Inactive)
REMARK    1  A    between atoms: _1  and  _3
REMARK    2  A    between atoms: _14  and  _17
REMARK    3  A    between atoms: _17  and  _18
REMARK    4  A    between atoms: _25  and  _26
REMARK    5  A    between atoms: _33  and  _34
REMARK    6  A    between atoms: _39  and  _41
REMARK    7  A    between atoms: _41  and  _42
REMARK    8  A    between atoms: _44  and  _46
REMARK    9  A    between atoms: _46  and  _47
REMARK   10  A    between atoms: _46  and  _49
REMARK   11  A    between atoms: _49  and  _50
REMARK   12  A    between atoms: _60  and  _62
REMARK   13  A    between atoms: _62  and  _63
REMARK   14  A    between atoms: _62  and  _65
REMARK   15  A    between atoms: _65  and  _66
REMARK   16  A    between atoms: _69  and  _71
REMARK   17  A    between atoms: _71  and  _72
REMARK   18  A    between atoms: _71  and  _74
REMARK   19  A    between atoms: _74  and  _75
REMARK   20  A    between atoms: _80  and  _81
REMARK   21  A    between atoms: _83  and  _85
REMARK   22  A    between atoms: _85  and  _86
REMARK   23  A    between atoms: _85  and  _88
REMARK   24  A    between atoms: _88  and  _89
REMARK   25  A    between atoms: _89  and  _90
REMARK   26  A    between atoms: _92  and  _94
REMARK   27  A    between atoms: _94  and  _95
REMARK   28  A    between atoms: _94  and  _97
REMARK   29  A    between atoms: _97  and  _98
REMARK   30  A    between atoms: _101  and  _103
REMARK   31  A    between atoms: _103  and  _104
REMARK   32  A    between atoms: _103  and  _106
REMARK   33  A    between atoms: _106  and  _107
REMARK   34  A    between atoms: _107  and  _109
REMARK   35  A    between atoms: _109  and  ZN_423
REMARK   36  A    between atoms: _111  and  _112
REMARK   37  A    between atoms: _117  and  _119
REMARK   38  A    between atoms: _119  and  _120
REMARK   39  A    between atoms: _119  and  _122
REMARK   40  A    between atoms: _122  and  _123
REMARK   41  A    between atoms: _129  and  _131
REMARK   42  A    between atoms: _131  and  _132
REMARK   43  A    between atoms: _131  and  _134
REMARK   44  A    between atoms: _134  and  _135
REMARK   45  A    between atoms: _135  and  _136
REMARK   46  A    between atoms: _136  and  _137
REMARK   47  A    between atoms: _146  and  _148
REMARK   48  A    between atoms: _148  and  _149
REMARK   49  A    between atoms: _148  and  _151
REMARK   50  A    between atoms: _151  and  _152
REMARK   51  A    between atoms: _157  and  _158
REMARK   52  A    between atoms: _160  and  _162
REMARK   53  A    between atoms: _162  and  _163
REMARK   54  A    between atoms: _162  and  _165
REMARK   55  A    between atoms: _165  and  _166
REMARK   56  A    between atoms: _168  and  _170
REMARK   57  A    between atoms: _170  and  _171
REMARK   58  A    between atoms: _170  and  _173
REMARK   59  A    between atoms: _173  and  _174
REMARK   60  A    between atoms: _179  and  _180
REMARK   61  A    between atoms: _182  and  _184
REMARK   62  A    between atoms: _184  and  _185
REMARK   63  A    between atoms: _184  and  _187
REMARK   64  A    between atoms: _187  and  _188
REMARK   65  A    between atoms: _191  and  _193
REMARK   66  A    between atoms: _193  and  _194
REMARK   67  A    between atoms: _193  and  _196
REMARK   68  A    between atoms: _196  and  _197
REMARK   69  A    between atoms: _197  and  _198
REMARK   70  A    between atoms: _198  and  _199
REMARK   71  A    between atoms: _208  and  _210
REMARK   72  A    between atoms: _210  and  _211
REMARK   73  A    between atoms: _210  and  _213
REMARK   74  A    between atoms: _213  and  _214
REMARK   75  A    between atoms: _217  and  _219
REMARK   76  A    between atoms: _219  and  _220
REMARK   77  A    between atoms: _219  and  _222
REMARK   78  A    between atoms: _222  and  _223
REMARK   79  A    between atoms: _226  and  _228
REMARK   80  A    between atoms: _228  and  _229
REMARK   81  A    between atoms: _228  and  _231
REMARK   82  A    between atoms: _231  and  _232
REMARK   83  A    between atoms: _238  and  _240
REMARK   84  A    between atoms: _240  and  _241
REMARK   85  A    between atoms: _240  and  _243
REMARK   86  A    between atoms: _243  and  _244
REMARK   87  A    between atoms: _249  and  _250
REMARK   88  A    between atoms: _252  and  _254
REMARK   89  A    between atoms: _254  and  _255
REMARK   90  A    between atoms: _254  and  _257
REMARK   91  A    between atoms: _257  and  _258
REMARK   92  A    between atoms: _261  and  _263
REMARK   93  A    between atoms: _263  and  _264
REMARK   94  A    between atoms: _263  and  _266
REMARK   95  A    between atoms: _266  and  _267
REMARK   96  A    between atoms: _267  and  _268
REMARK   97  A    between atoms: _268  and  _269
REMARK   98  A    between atoms: _278  and  _280
REMARK   99  A    between atoms: _280  and  _281
REMARK  100  A    between atoms: _280  and  _283
REMARK  101  A    between atoms: _283  and  _284
REMARK  102  A    between atoms: _294  and  _296
REMARK  103  A    between atoms: _296  and  _297
REMARK  104  A    between atoms: _296  and  _299
REMARK  105  A    between atoms: _299  and  _300
REMARK  106  A    between atoms: _305  and  _307
REMARK  107  A    between atoms: _307  and  _308
REMARK  108  A    between atoms: _307  and  _310
REMARK  109  A    between atoms: _310  and  _311
REMARK  110  A    between atoms: _315  and  ZN_423
REMARK  111  A    between atoms: _316  and  _318
REMARK  112  A    between atoms: _318  and  _319
REMARK  113  A    between atoms: _318  and  _321
REMARK  114  A    between atoms: _321  and  _322
REMARK  115  A    between atoms: _325  and  _327
REMARK  116  A    between atoms: _327  and  _328
REMARK  117  A    between atoms: _330  and  _332
REMARK  118  A    between atoms: _332  and  _333
REMARK  119  A    between atoms: _332  and  _335
REMARK  120  A    between atoms: _335  and  _336
REMARK  121  A    between atoms: _339  and  _341
REMARK  122  A    between atoms: _341  and  _342
REMARK  123  A    between atoms: _341  and  _344
REMARK  124  A    between atoms: _344  and  _345
REMARK  125  A    between atoms: _348  and  _350
REMARK  126  A    between atoms: _350  and  _351
REMARK  127  A    between atoms: _354  and  _356
REMARK  128  A    between atoms: _356  and  _357
REMARK  129  A    between atoms: _356  and  _359
REMARK  130  A    between atoms: _359  and  _360
REMARK  131  A    between atoms: _365  and  _366
REMARK  132  A    between atoms: _368  and  _370
REMARK  133  A    between atoms: _370  and  _371
REMARK  134  A    between atoms: _370  and  _373
REMARK  135  A    between atoms: _373  and  _374
REMARK  136  A    between atoms: _377  and  _379
REMARK  137  A    between atoms: _379  and  _380
REMARK  138  A    between atoms: _379  and  _382
REMARK  139  A    between atoms: _382  and  _383
REMARK  140  A    between atoms: _383  and  _384
REMARK  141  A    between atoms: _387  and  _389
REMARK  142  A    between atoms: _389  and  _390
REMARK  143  A    between atoms: _389  and  _392
REMARK  144  A    between atoms: _392  and  _393
REMARK  145  A    between atoms: _393  and  _394
REMARK  146  A    between atoms: _394  and  _395
REMARK  147  A    between atoms: _404  and  _406
REMARK  148  A    between atoms: _406  and  _407
REMARK  149  A    between atoms: _409  and  _411
REMARK  150  A    between atoms: _411  and  _412
REMARK  151  A    between atoms: _411  and  _414
REMARK  152  A    between atoms: _414  and  _415
REMARK  153  A    between atoms: _418  and  _420
REMARK  154  A    between atoms: _420  and  _421
REMARK                            x       y       z     vdW  Elec       q    Type
REMARK                         _______ _______ _______ _____ _____    ______ ____
ROOT
ATOM      1  O   HOH     1      23.729  62.247  14.127  0.00  0.00    +0.000 OA
ENDROOT
TORSDOF 0
REMARK  Name = ../refined-set-2016/3d50/3d50_pocket.pdb
REMARK  154 active torsions:
REMARK  status: ('A' for Active; 'I' for Inactive)
REMARK    1  A    between atoms: _1  and  _3
REMARK    2  A    between atoms: _14  and  _17
REMARK    3  A    between atoms: _17  and  _18
REMARK    4  A    between atoms: _25  and  _26
REMARK    5  A    between atoms: _33  and  _34
REMARK    6  A    between atoms: _39  and  _41
REMARK    7  A    between atoms: _41  and  _42
REMARK    8  A    between atoms: _44  and  _46
REMARK    9  A    between atoms: _46  and  _47
REMARK   10  A    between atoms: _46  and  _49
REMARK   11  A    between atoms: _49  and  _50
REMARK   12  A    between atoms: _60  and  _62
REMARK   13  A    between atoms: _62  and  _63
REMARK   14  A    between atoms: _62  and  _65
REMARK   15  A    between atoms: _65  and  _66
REMARK   16  A    between atoms: _69  and  _71
REMARK   17  A    between atoms: _71  and  _72
REMARK   18  A    between atoms: _71  and  _74
REMARK   19  A    between atoms: _74  and  _75
REMARK   20  A    between atoms: _80  and  _81
REMARK   21  A    between atoms: _83  and  _85
REMARK   22  A    between atoms: _85  and  _86
REMARK   23  A    between atoms: _85  and  _88
REMARK   24  A    between atoms: _88  and  _89
REMARK   25  A    between atoms: _89  and  _90
REMARK   26  A    between atoms: _92  and  _94
REMARK   27  A    between atoms: _94  and  _95
REMARK   28  A    between atoms: _94  and  _97
REMARK   29  A    between atoms: _97  and  _98
REMARK   30  A    between atoms: _101  and  _103
REMARK   31  A    between atoms: _103  and  _104
REMARK   32  A    between atoms: _103  and  _106
REMARK   33  A    between atoms: _106  and  _107
REMARK   34  A    between atoms: _107  and  _109
REMARK   35  A    between atoms: _109  and  ZN_423
REMARK   36  A    between atoms: _111  and  _112
REMARK   37  A    between atoms: _117  and  _119
REMARK   38  A    between atoms: _119  and  _120
REMARK   39  A    between atoms: _119  and  _122
REMARK   40  A    between atoms: _122  and  _123
REMARK   41  A    between atoms: _129  and  _131
REMARK   42  A    between atoms: _131  and  _132
REMARK   43  A    between atoms: _131  and  _134
REMARK   44  A    between atoms: _134  and  _135
REMARK   45  A    between atoms: _135  and  _136
REMARK   46  A    between atoms: _136  and  _137
REMARK   47  A    between atoms: _146  and  _148
REMARK   48  A    between atoms: _148  and  _149
REMARK   49  A    between atoms: _148  and  _151
REMARK   50  A    between atoms: _151  and  _152
REMARK   51  A    between atoms: _157  and  _158
REMARK   52  A    between atoms: _160  and  _162
REMARK   53  A    between atoms: _162  and  _163
REMARK   54  A    between atoms: _162  and  _165
REMARK   55  A    between atoms: _165  and  _166
REMARK   56  A    between atoms: _168  and  _170
REMARK   57  A    between atoms: _170  and  _171
REMARK   58  A    between atoms: _170  and  _173
REMARK   59  A    between atoms: _173  and  _174
REMARK   60  A    between atoms: _179  and  _180
REMARK   61  A    between atoms: _182  and  _184
REMARK   62  A    between atoms: _184  and  _185
REMARK   63  A    between atoms: _184  and  _187
REMARK   64  A    between atoms: _187  and  _188
REMARK   65  A    between atoms: _191  and  _193
REMARK   66  A    between atoms: _193  and  _194
REMARK   67  A    between atoms: _193  and  _196
REMARK   68  A    between atoms: _196  and  _197
REMARK   69  A    between atoms: _197  and  _198
REMARK   70  A    between atoms: _198  and  _199
REMARK   71  A    between atoms: _208  and  _210
REMARK   72  A    between atoms: _210  and  _211
REMARK   73  A    between atoms: _210  and  _213
REMARK   74  A    between atoms: _213  and  _214
REMARK   75  A    between atoms: _217  and  _219
REMARK   76  A    between atoms: _219  and  _220
REMARK   77  A    between atoms: _219  and  _222
REMARK   78  A    between atoms: _222  and  _223
REMARK   79  A    between atoms: _226  and  _228
REMARK   80  A    between atoms: _228  and  _229
REMARK   81  A    between atoms: _228  and  _231
REMARK   82  A    between atoms: _231  and  _232
REMARK   83  A    between atoms: _238  and  _240
REMARK   84  A    between atoms: _240  and  _241
REMARK   85  A    between atoms: _240  and  _243
REMARK   86  A    between atoms: _243  and  _244
REMARK   87  A    between atoms: _249  and  _250
REMARK   88  A    between atoms: _252  and  _254
REMARK   89  A    between atoms: _254  and  _255
REMARK   90  A    between atoms: _254  and  _257
REMARK   91  A    between atoms: _257  and  _258
REMARK   92  A    between atoms: _261  and  _263
REMARK   93  A    between atoms: _263  and  _264
REMARK   94  A    between atoms: _263  and  _266
REMARK   95  A    between atoms: _266  and  _267
REMARK   96  A    between atoms: _267  and  _268
REMARK   97  A    between atoms: _268  and  _269
REMARK   98  A    between atoms: _278  and  _280
REMARK   99  A    between atoms: _280  and  _281
REMARK  100  A    between atoms: _280  and  _283
REMARK  101  A    between atoms: _283  and  _284
REMARK  102  A    between atoms: _294  and  _296
REMARK  103  A    between atoms: _296  and  _297
REMARK  104  A    between atoms: _296  and  _299
REMARK  105  A    between atoms: _299  and  _300
REMARK  106  A    between atoms: _305  and  _307
REMARK  107  A    between atoms: _307  and  _308
REMARK  108  A    between atoms: _307  and  _310
REMARK  109  A    between atoms: _310  and  _311
REMARK  110  A    between atoms: _315  and  ZN_423
REMARK  111  A    between atoms: _316  and  _318
REMARK  112  A    between atoms: _318  and  _319
REMARK  113  A    between atoms: _318  and  _321
REMARK  114  A    between atoms: _321  and  _322
REMARK  115  A    between atoms: _325  and  _327
REMARK  116  A    between atoms: _327  and  _328
REMARK  117  A    between atoms: _330  and  _332
REMARK  118  A    between atoms: _332  and  _333
REMARK  119  A    between atoms: _332  and  _335
REMARK  120  A    between atoms: _335  and  _336
REMARK  121  A    between atoms: _339  and  _341
REMARK  122  A    between atoms: _341  and  _342
REMARK  123  A    between atoms: _341  and  _344
REMARK  124  A    between atoms: _344  and  _345
REMARK  125  A    between atoms: _348  and  _350
REMARK  126  A    between atoms: _350  and  _351
REMARK  127  A    between atoms: _354  and  _356
REMARK  128  A    between atoms: _356  and  _357
REMARK  129  A    between atoms: _356  and  _359
REMARK  130  A    between atoms: _359  and  _360
REMARK  131  A    between atoms: _365  and  _366
REMARK  132  A    between atoms: _368  and  _370
REMARK  133  A    between atoms: _370  and  _371
REMARK  134  A    between atoms: _370  and  _373
REMARK  135  A    between atoms: _373  and  _374
REMARK  136  A    between atoms: _377  and  _379
REMARK  137  A    between atoms: _379  and  _380
REMARK  138  A    between atoms: _379  and  _382
REMARK  139  A    between atoms: _382  and  _383
REMARK  140  A    between atoms: _383  and  _384
REMARK  141  A    between atoms: _387  and  _389
REMARK  142  A    between atoms: _389  and  _390
REMARK  143  A    between atoms: _389  and  _392
REMARK  144  A    between atoms: _392  and  _393
REMARK  145  A    between atoms: _393  and  _394
REMARK  146  A    between atoms: _394  and  _395
REMARK  147  A    between atoms: _404  and  _406
REMARK  148  A    between atoms: _406  and  _407
REMARK  149  A    between atoms: _409  and  _411
REMARK  150  A    between atoms: _411  and  _412
REMARK  151  A    between atoms: _411  and  _414
REMARK  152  A    between atoms: _414  and  _415
REMARK  153  A    between atoms: _418  and  _420
REMARK  154  A    between atoms: _420  and  _421
REMARK                            x       y       z     vdW  Elec       q    Type
REMARK                         _______ _______ _______ _____ _____    ______ ____
ROOT
ATOM      1  O   HOH     1      28.626  64.997  19.856  0.00  0.00    +0.000 OA
ENDROOT
TORSDOF 0
REMARK  Name = ../refined-set-2016/3d50/3d50_pocket.pdb
REMARK  154 active torsions:
REMARK  status: ('A' for Active; 'I' for Inactive)
REMARK    1  A    between atoms: _1  and  _3
REMARK    2  A    between atoms: _14  and  _17
REMARK    3  A    between atoms: _17  and  _18
REMARK    4  A    between atoms: _25  and  _26
REMARK    5  A    between atoms: _33  and  _34
REMARK    6  A    between atoms: _39  and  _41
REMARK    7  A    between atoms: _41  and  _42
REMARK    8  A    between atoms: _44  and  _46
REMARK    9  A    between atoms: _46  and  _47
REMARK   10  A    between atoms: _46  and  _49
REMARK   11  A    between atoms: _49  and  _50
REMARK   12  A    between atoms: _60  and  _62
REMARK   13  A    between atoms: _62  and  _63
REMARK   14  A    between atoms: _62  and  _65
REMARK   15  A    between atoms: _65  and  _66
REMARK   16  A    between atoms: _69  and  _71
REMARK   17  A    between atoms: _71  and  _72
REMARK   18  A    between atoms: _71  and  _74
REMARK   19  A    between atoms: _74  and  _75
REMARK   20  A    between atoms: _80  and  _81
REMARK   21  A    between atoms: _83  and  _85
REMARK   22  A    between atoms: _85  and  _86
REMARK   23  A    between atoms: _85  and  _88
REMARK   24  A    between atoms: _88  and  _89
REMARK   25  A    between atoms: _89  and  _90
REMARK   26  A    between atoms: _92  and  _94
REMARK   27  A    between atoms: _94  and  _95
REMARK   28  A    between atoms: _94  and  _97
REMARK   29  A    between atoms: _97  and  _98
REMARK   30  A    between atoms: _101  and  _103
REMARK   31  A    between atoms: _103  and  _104
REMARK   32  A    between atoms: _103  and  _106
REMARK   33  A    between atoms: _106  and  _107
REMARK   34  A    between atoms: _107  and  _109
REMARK   35  A    between atoms: _109  and  ZN_423
REMARK   36  A    between atoms: _111  and  _112
REMARK   37  A    between atoms: _117  and  _119
REMARK   38  A    between atoms: _119  and  _120
REMARK   39  A    between atoms: _119  and  _122
REMARK   40  A    between atoms: _122  and  _123
REMARK   41  A    between atoms: _129  and  _131
REMARK   42  A    between atoms: _131  and  _132
REMARK   43  A    between atoms: _131  and  _134
REMARK   44  A    between atoms: _134  and  _135
REMARK   45  A    between atoms: _135  and  _136
REMARK   46  A    between atoms: _136  and  _137
REMARK   47  A    between atoms: _146  and  _148
REMARK   48  A    between atoms: _148  and  _149
REMARK   49  A    between atoms: _148  and  _151
REMARK   50  A    between atoms: _151  and  _152
REMARK   51  A    between atoms: _157  and  _158
REMARK   52  A    between atoms: _160  and  _162
REMARK   53  A    between atoms: _162  and  _163
REMARK   54  A    between atoms: _162  and  _165
REMARK   55  A    between atoms: _165  and  _166
REMARK   56  A    between atoms: _168  and  _170
REMARK   57  A    between atoms: _170  and  _171
REMARK   58  A    between atoms: _170  and  _173
REMARK   59  A    between atoms: _173  and  _174
REMARK   60  A    between atoms: _179  and  _180
REMARK   61  A    between atoms: _182  and  _184
REMARK   62  A    between atoms: _184  and  _185
REMARK   63  A    between atoms: _184  and  _187
REMARK   64  A    between atoms: _187  and  _188
REMARK   65  A    between atoms: _191  and  _193
REMARK   66  A    between atoms: _193  and  _194
REMARK   67  A    between atoms: _193  and  _196
REMARK   68  A    between atoms: _196  and  _197
REMARK   69  A    between atoms: _197  and  _198
REMARK   70  A    between atoms: _198  and  _199
REMARK   71  A    between atoms: _208  and  _210
REMARK   72  A    between atoms: _210  and  _211
REMARK   73  A    between atoms: _210  and  _213
REMARK   74  A    between atoms: _213  and  _214
REMARK   75  A    between atoms: _217  and  _219
REMARK   76  A    between atoms: _219  and  _220
REMARK   77  A    between atoms: _219  and  _222
REMARK   78  A    between atoms: _222  and  _223
REMARK   79  A    between atoms: _226  and  _228
REMARK   80  A    between atoms: _228  and  _229
REMARK   81  A    between atoms: _228  and  _231
REMARK   82  A    between atoms: _231  and  _232
REMARK   83  A    between atoms: _238  and  _240
REMARK   84  A    between atoms: _240  and  _241
REMARK   85  A    between atoms: _240  and  _243
REMARK   86  A    between atoms: _243  and  _244
REMARK   87  A    between atoms: _249  and  _250
REMARK   88  A    between atoms: _252  and  _254
REMARK   89  A    between atoms: _254  and  _255
REMARK   90  A    between atoms: _254  and  _257
REMARK   91  A    between atoms: _257  and  _258
REMARK   92  A    between atoms: _261  and  _263
REMARK   93  A    between atoms: _263  and  _264
REMARK   94  A    between atoms: _263  and  _266
REMARK   95  A    between atoms: _266  and  _267
REMARK   96  A    between atoms: _267  and  _268
REMARK   97  A    between atoms: _268  and  _269
REMARK   98  A    between atoms: _278  and  _280
REMARK   99  A    between atoms: _280  and  _281
REMARK  100  A    between atoms: _280  and  _283
REMARK  101  A    between atoms: _283  and  _284
REMARK  102  A    between atoms: _294  and  _296
REMARK  103  A    between atoms: _296  and  _297
REMARK  104  A    between atoms: _296  and  _299
REMARK  105  A    between atoms: _299  and  _300
REMARK  106  A    between atoms: _305  and  _307
REMARK  107  A    between atoms: _307  and  _308
REMARK  108  A    between atoms: _307  and  _310
REMARK  109  A    between atoms: _310  and  _311
REMARK  110  A    between atoms: _315  and  ZN_423
REMARK  111  A    between atoms: _316  and  _318
REMARK  112  A    between atoms: _318  and  _319
REMARK  113  A    between atoms: _318  and  _321
REMARK  114  A    between atoms: _321  and  _322
REMARK  115  A    between atoms: _325  and  _327
REMARK  116  A    between atoms: _327  and  _328
REMARK  117  A    between atoms: _330  and  _332
REMARK  118  A    between atoms: _332  and  _333
REMARK  119  A    between atoms: _332  and  _335
REMARK  120  A    between atoms: _335  and  _336
REMARK  121  A    between atoms: _339  and  _341
REMARK  122  A    between atoms: _341  and  _342
REMARK  123  A    between atoms: _341  and  _344
REMARK  124  A    between atoms: _344  and  _345
REMARK  125  A    between atoms: _348  and  _350
REMARK  126  A    between atoms: _350  and  _351
REMARK  127  A    between atoms: _354  and  _356
REMARK  128  A    between atoms: _356  and  _357
REMARK  129  A    between atoms: _356  and  _359
REMARK  130  A    between atoms: _359  and  _360
REMARK  131  A    between atoms: _365  and  _366
REMARK  132  A    between atoms: _368  and  _370
REMARK  133  A    between atoms: _370  and  _371
REMARK  134  A    between atoms: _370  and  _373
REMARK  135  A    between atoms: _373  and  _374
REMARK  136  A    between atoms: _377  and  _379
REMARK  137  A    between atoms: _379  and  _380
REMARK  138  A    between atoms: _379  and  _382
REMARK  139  A    between atoms: _382  and  _383
REMARK  140  A    between atoms: _383  and  _384
REMARK  141  A    between atoms: _387  and  _389
REMARK  142  A    between atoms: _389  and  _390
REMARK  143  A    between atoms: _389  and  _392
REMARK  144  A    between atoms: _392  and  _393
REMARK  145  A    between atoms: _393  and  _394
REMARK  146  A    between atoms: _394  and  _395
REMARK  147  A    between atoms: _404  and  _406
REMARK  148  A    between atoms: _406  and  _407
REMARK  149  A    between atoms: _409  and  _411
REMARK  150  A    between atoms: _411  and  _412
REMARK  151  A    between atoms: _411  and  _414
REMARK  152  A    between atoms: _414  and  _415
REMARK  153  A    between atoms: _418  and  _420
REMARK  154  A    between atoms: _420  and  _421
REMARK                            x       y       z     vdW  Elec       q    Type
REMARK                         _______ _______ _______ _____ _____    ______ ____
ROOT
ATOM      1  O   HOH     1      33.246  68.899  17.845  0.00  0.00    +0.000 OA
ENDROOT
TORSDOF 0
REMARK  Name = ../refined-set-2016/3d50/3d50_pocket.pdb
REMARK  154 active torsions:
REMARK  status: ('A' for Active; 'I' for Inactive)
REMARK    1  A    between atoms: _1  and  _3
REMARK    2  A    between atoms: _14  and  _17
REMARK    3  A    between atoms: _17  and  _18
REMARK    4  A    between atoms: _25  and  _26
REMARK    5  A    between atoms: _33  and  _34
REMARK    6  A    between atoms: _39  and  _41
REMARK    7  A    between atoms: _41  and  _42
REMARK    8  A    between atoms: _44  and  _46
REMARK    9  A    between atoms: _46  and  _47
REMARK   10  A    between atoms: _46  and  _49
REMARK   11  A    between atoms: _49  and  _50
REMARK   12  A    between atoms: _60  and  _62
REMARK   13  A    between atoms: _62  and  _63
REMARK   14  A    between atoms: _62  and  _65
REMARK   15  A    between atoms: _65  and  _66
REMARK   16  A    between atoms: _69  and  _71
REMARK   17  A    between atoms: _71  and  _72
REMARK   18  A    between atoms: _71  and  _74
REMARK   19  A    between atoms: _74  and  _75
REMARK   20  A    between atoms: _80  and  _81
REMARK   21  A    between atoms: _83  and  _85
REMARK   22  A    between atoms: _85  and  _86
REMARK   23  A    between atoms: _85  and  _88
REMARK   24  A    between atoms: _88  and  _89
REMARK   25  A    between atoms: _89  and  _90
REMARK   26  A    between atoms: _92  and  _94
REMARK   27  A    between atoms: _94  and  _95
REMARK   28  A    between atoms: _94  and  _97
REMARK   29  A    between atoms: _97  and  _98
REMARK   30  A    between atoms: _101  and  _103
REMARK   31  A    between atoms: _103  and  _104
REMARK   32  A    between atoms: _103  and  _106
REMARK   33  A    between atoms: _106  and  _107
REMARK   34  A    between atoms: _107  and  _109
REMARK   35  A    between atoms: _109  and  ZN_423
REMARK   36  A    between atoms: _111  and  _112
REMARK   37  A    between atoms: _117  and  _119
REMARK   38  A    between atoms: _119  and  _120
REMARK   39  A    between atoms: _119  and  _122
REMARK   40  A    between atoms: _122  and  _123
REMARK   41  A    between atoms: _129  and  _131
REMARK   42  A    between atoms: _131  and  _132
REMARK   43  A    between atoms: _131  and  _134
REMARK   44  A    between atoms: _134  and  _135
REMARK   45  A    between atoms: _135  and  _136
REMARK   46  A    between atoms: _136  and  _137
REMARK   47  A    between atoms: _146  and  _148
REMARK   48  A    between atoms: _148  and  _149
REMARK   49  A    between atoms: _148  and  _151
REMARK   50  A    between atoms: _151  and  _152
REMARK   51  A    between atoms: _157  and  _158
REMARK   52  A    between atoms: _160  and  _162
REMARK   53  A    between atoms: _162  and  _163
REMARK   54  A    between atoms: _162  and  _165
REMARK   55  A    between atoms: _165  and  _166
REMARK   56  A    between atoms: _168  and  _170
REMARK   57  A    between atoms: _170  and  _171
REMARK   58  A    between atoms: _170  and  _173
REMARK   59  A    between atoms: _173  and  _174
REMARK   60  A    between atoms: _179  and  _180
REMARK   61  A    between atoms: _182  and  _184
REMARK   62  A    between atoms: _184  and  _185
REMARK   63  A    between atoms: _184  and  _187
REMARK   64  A    between atoms: _187  and  _188
REMARK   65  A    between atoms: _191  and  _193
REMARK   66  A    between atoms: _193  and  _194
REMARK   67  A    between atoms: _193  and  _196
REMARK   68  A    between atoms: _196  and  _197
REMARK   69  A    between atoms: _197  and  _198
REMARK   70  A    between atoms: _198  and  _199
REMARK   71  A    between atoms: _208  and  _210
REMARK   72  A    between atoms: _210  and  _211
REMARK   73  A    between atoms: _210  and  _213
REMARK   74  A    between atoms: _213  and  _214
REMARK   75  A    between atoms: _217  and  _219
REMARK   76  A    between atoms: _219  and  _220
REMARK   77  A    between atoms: _219  and  _222
REMARK   78  A    between atoms: _222  and  _223
REMARK   79  A    between atoms: _226  and  _228
REMARK   80  A    between atoms: _228  and  _229
REMARK   81  A    between atoms: _228  and  _231
REMARK   82  A    between atoms: _231  and  _232
REMARK   83  A    between atoms: _238  and  _240
REMARK   84  A    between atoms: _240  and  _241
REMARK   85  A    between atoms: _240  and  _243
REMARK   86  A    between atoms: _243  and  _244
REMARK   87  A    between atoms: _249  and  _250
REMARK   88  A    between atoms: _252  and  _254
REMARK   89  A    between atoms: _254  and  _255
REMARK   90  A    between atoms: _254  and  _257
REMARK   91  A    between atoms: _257  and  _258
REMARK   92  A    between atoms: _261  and  _263
REMARK   93  A    between atoms: _263  and  _264
REMARK   94  A    between atoms: _263  and  _266
REMARK   95  A    between atoms: _266  and  _267
REMARK   96  A    between atoms: _267  and  _268
REMARK   97  A    between atoms: _268  and  _269
REMARK   98  A    between atoms: _278  and  _280
REMARK   99  A    between atoms: _280  and  _281
REMARK  100  A    between atoms: _280  and  _283
REMARK  101  A    between atoms: _283  and  _284
REMARK  102  A    between atoms: _294  and  _296
REMARK  103  A    between atoms: _296  and  _297
REMARK  104  A    between atoms: _296  and  _299
REMARK  105  A    between atoms: _299  and  _300
REMARK  106  A    between atoms: _305  and  _307
REMARK  107  A    between atoms: _307  and  _308
REMARK  108  A    between atoms: _307  and  _310
REMARK  109  A    between atoms: _310  and  _311
REMARK  110  A    between atoms: _315  and  ZN_423
REMARK  111  A    between atoms: _316  and  _318
REMARK  112  A    between atoms: _318  and  _319
REMARK  113  A    between atoms: _318  and  _321
REMARK  114  A    between atoms: _321  and  _322
REMARK  115  A    between atoms: _325  and  _327
REMARK  116  A    between atoms: _327  and  _328
REMARK  117  A    between atoms: _330  and  _332
REMARK  118  A    between atoms: _332  and  _333
REMARK  119  A    between atoms: _332  and  _335
REMARK  120  A    between atoms: _335  and  _336
REMARK  121  A    between atoms: _339  and  _341
REMARK  122  A    between atoms: _341  and  _342
REMARK  123  A    between atoms: _341  and  _344
REMARK  124  A    between atoms: _344  and  _345
REMARK  125  A    between atoms: _348  and  _350
REMARK  126  A    between atoms: _350  and  _351
REMARK  127  A    between atoms: _354  and  _356
REMARK  128  A    between atoms: _356  and  _357
REMARK  129  A    between atoms: _356  and  _359
REMARK  130  A    between atoms: _359  and  _360
REMARK  131  A    between atoms: _365  and  _366
REMARK  132  A    between atoms: _368  and  _370
REMARK  133  A    between atoms: _370  and  _371
REMARK  134  A    between atoms: _370  and  _373
REMARK  135  A    between atoms: _373  and  _374
REMARK  136  A    between atoms: _377  and  _379
REMARK  137  A    between atoms: _379  and  _380
REMARK  138  A    between atoms: _379  and  _382
REMARK  139  A    between atoms: _382  and  _383
REMARK  140  A    between atoms: _383  and  _384
REMARK  141  A    between atoms: _387  and  _389
REMARK  142  A    between atoms: _389  and  _390
REMARK  143  A    between atoms: _389  and  _392
REMARK  144  A    between atoms: _392  and  _393
REMARK  145  A    between atoms: _393  and  _394
REMARK  146  A    between atoms: _394  and  _395
REMARK  147  A    between atoms: _404  and  _406
REMARK  148  A    between atoms: _406  and  _407
REMARK  149  A    between atoms: _409  and  _411
REMARK  150  A    between atoms: _411  and  _412
REMARK  151  A    between atoms: _411  and  _414
REMARK  152  A    between atoms: _414  and  _415
REMARK  153  A    between atoms: _418  and  _420
REMARK  154  A    between atoms: _420  and  _421
REMARK                            x       y       z     vdW  Elec       q    Type
REMARK                         _______ _______ _______ _____ _____    ______ ____
ROOT
ATOM      1  O   HOH     1      35.540  70.844  16.609  0.00  0.00    +0.000 OA
ENDROOT
TORSDOF 0
REMARK  Name = ../refined-set-2016/3d50/3d50_pocket.pdb
REMARK  154 active torsions:
REMARK  status: ('A' for Active; 'I' for Inactive)
REMARK    1  A    between atoms: _1  and  _3
REMARK    2  A    between atoms: _14  and  _17
REMARK    3  A    between atoms: _17  and  _18
REMARK    4  A    between atoms: _25  and  _26
REMARK    5  A    between atoms: _33  and  _34
REMARK    6  A    between atoms: _39  and  _41
REMARK    7  A    between atoms: _41  and  _42
REMARK    8  A    between atoms: _44  and  _46
REMARK    9  A    between atoms: _46  and  _47
REMARK   10  A    between atoms: _46  and  _49
REMARK   11  A    between atoms: _49  and  _50
REMARK   12  A    between atoms: _60  and  _62
REMARK   13  A    between atoms: _62  and  _63
REMARK   14  A    between atoms: _62  and  _65
REMARK   15  A    between atoms: _65  and  _66
REMARK   16  A    between atoms: _69  and  _71
REMARK   17  A    between atoms: _71  and  _72
REMARK   18  A    between atoms: _71  and  _74
REMARK   19  A    between atoms: _74  and  _75
REMARK   20  A    between atoms: _80  and  _81
REMARK   21  A    between atoms: _83  and  _85
REMARK   22  A    between atoms: _85  and  _86
REMARK   23  A    between atoms: _85  and  _88
REMARK   24  A    between atoms: _88  and  _89
REMARK   25  A    between atoms: _89  and  _90
REMARK   26  A    between atoms: _92  and  _94
REMARK   27  A    between atoms: _94  and  _95
REMARK   28  A    between atoms: _94  and  _97
REMARK   29  A    between atoms: _97  and  _98
REMARK   30  A    between atoms: _101  and  _103
REMARK   31  A    between atoms: _103  and  _104
REMARK   32  A    between atoms: _103  and  _106
REMARK   33  A    between atoms: _106  and  _107
REMARK   34  A    between atoms: _107  and  _109
REMARK   35  A    between atoms: _109  and  ZN_423
REMARK   36  A    between atoms: _111  and  _112
REMARK   37  A    between atoms: _117  and  _119
REMARK   38  A    between atoms: _119  and  _120
REMARK   39  A    between atoms: _119  and  _122
REMARK   40  A    between atoms: _122  and  _123
REMARK   41  A    between atoms: _129  and  _131
REMARK   42  A    between atoms: _131  and  _132
REMARK   43  A    between atoms: _131  and  _134
REMARK   44  A    between atoms: _134  and  _135
REMARK   45  A    between atoms: _135  and  _136
REMARK   46  A    between atoms: _136  and  _137
REMARK   47  A    between atoms: _146  and  _148
REMARK   48  A    between atoms: _148  and  _149
REMARK   49  A    between atoms: _148  and  _151
REMARK   50  A    between atoms: _151  and  _152
REMARK   51  A    between atoms: _157  and  _158
REMARK   52  A    between atoms: _160  and  _162
REMARK   53  A    between atoms: _162  and  _163
REMARK   54  A    between atoms: _162  and  _165
REMARK   55  A    between atoms: _165  and  _166
REMARK   56  A    between atoms: _168  and  _170
REMARK   57  A    between atoms: _170  and  _171
REMARK   58  A    between atoms: _170  and  _173
REMARK   59  A    between atoms: _173  and  _174
REMARK   60  A    between atoms: _179  and  _180
REMARK   61  A    between atoms: _182  and  _184
REMARK   62  A    between atoms: _184  and  _185
REMARK   63  A    between atoms: _184  and  _187
REMARK   64  A    between atoms: _187  and  _188
REMARK   65  A    between atoms: _191  and  _193
REMARK   66  A    between atoms: _193  and  _194
REMARK   67  A    between atoms: _193  and  _196
REMARK   68  A    between atoms: _196  and  _197
REMARK   69  A    between atoms: _197  and  _198
REMARK   70  A    between atoms: _198  and  _199
REMARK   71  A    between atoms: _208  and  _210
REMARK   72  A    between atoms: _210  and  _211
REMARK   73  A    between atoms: _210  and  _213
REMARK   74  A    between atoms: _213  and  _214
REMARK   75  A    between atoms: _217  and  _219
REMARK   76  A    between atoms: _219  and  _220
REMARK   77  A    between atoms: _219  and  _222
REMARK   78  A    between atoms: _222  and  _223
REMARK   79  A    between atoms: _226  and  _228
REMARK   80  A    between atoms: _228  and  _229
REMARK   81  A    between atoms: _228  and  _231
REMARK   82  A    between atoms: _231  and  _232
REMARK   83  A    between atoms: _238  and  _240
REMARK   84  A    between atoms: _240  and  _241
REMARK   85  A    between atoms: _240  and  _243
REMARK   86  A    between atoms: _243  and  _244
REMARK   87  A    between atoms: _249  and  _250
REMARK   88  A    between atoms: _252  and  _254
REMARK   89  A    between atoms: _254  and  _255
REMARK   90  A    between atoms: _254  and  _257
REMARK   91  A    between atoms: _257  and  _258
REMARK   92  A    between atoms: _261  and  _263
REMARK   93  A    between atoms: _263  and  _264
REMARK   94  A    between atoms: _263  and  _266
REMARK   95  A    between atoms: _266  and  _267
REMARK   96  A    between atoms: _267  and  _268
REMARK   97  A    between atoms: _268  and  _269
REMARK   98  A    between atoms: _278  and  _280
REMARK   99  A    between atoms: _280  and  _281
REMARK  100  A    between atoms: _280  and  _283
REMARK  101  A    between atoms: _283  and  _284
REMARK  102  A    between atoms: _294  and  _296
REMARK  103  A    between atoms: _296  and  _297
REMARK  104  A    between atoms: _296  and  _299
REMARK  105  A    between atoms: _299  and  _300
REMARK  106  A    between atoms: _305  and  _307
REMARK  107  A    between atoms: _307  and  _308
REMARK  108  A    between atoms: _307  and  _310
REMARK  109  A    between atoms: _310  and  _311
REMARK  110  A    between atoms: _315  and  ZN_423
REMARK  111  A    between atoms: _316  and  _318
REMARK  112  A    between atoms: _318  and  _319
REMARK  113  A    between atoms: _318  and  _321
REMARK  114  A    between atoms: _321  and  _322
REMARK  115  A    between atoms: _325  and  _327
REMARK  116  A    between atoms: _327  and  _328
REMARK  117  A    between atoms: _330  and  _332
REMARK  118  A    between atoms: _332  and  _333
REMARK  119  A    between atoms: _332  and  _335
REMARK  120  A    between atoms: _335  and  _336
REMARK  121  A    between atoms: _339  and  _341
REMARK  122  A    between atoms: _341  and  _342
REMARK  123  A    between atoms: _341  and  _344
REMARK  124  A    between atoms: _344  and  _345
REMARK  125  A    between atoms: _348  and  _350
REMARK  126  A    between atoms: _350  and  _351
REMARK  127  A    between atoms: _354  and  _356
REMARK  128  A    between atoms: _356  and  _357
REMARK  129  A    between atoms: _356  and  _359
REMARK  130  A    between atoms: _359  and  _360
REMARK  131  A    between atoms: _365  and  _366
REMARK  132  A    between atoms: _368  and  _370
REMARK  133  A    between atoms: _370  and  _371
REMARK  134  A    between atoms: _370  and  _373
REMARK  135  A    between atoms: _373  and  _374
REMARK  136  A    between atoms: _377  and  _379
REMARK  137  A    between atoms: _379  and  _380
REMARK  138  A    between atoms: _379  and  _382
REMARK  139  A    between atoms: _382  and  _383
REMARK  140  A    between atoms: _383  and  _384
REMARK  141  A    between atoms: _387  and  _389
REMARK  142  A    between atoms: _389  and  _390
REMARK  143  A    between atoms: _389  and  _392
REMARK  144  A    between atoms: _392  and  _393
REMARK  145  A    between atoms: _393  and  _394
REMARK  146  A    between atoms: _394  and  _395
REMARK  147  A    between atoms: _404  and  _406
REMARK  148  A    between atoms: _406  and  _407
REMARK  149  A    between atoms: _409  and  _411
REMARK  150  A    between atoms: _411  and  _412
REMARK  151  A    between atoms: _411  and  _414
REMARK  152  A    between atoms: _414  and  _415
REMARK  153  A    between atoms: _418  and  _420
REMARK  154  A    between atoms: _420  and  _421
REMARK                            x       y       z     vdW  Elec       q    Type
REMARK                         _______ _______ _______ _____ _____    ______ ____
ROOT
ATOM      1  O   HOH     1      33.085  62.975   0.365  0.00  0.00    +0.000 OA
ENDROOT
TORSDOF 0
REMARK  Name = ../refined-set-2016/3d50/3d50_pocket.pdb
REMARK  154 active torsions:
REMARK  status: ('A' for Active; 'I' for Inactive)
REMARK    1  A    between atoms: _1  and  _3
REMARK    2  A    between atoms: _14  and  _17
REMARK    3  A    between atoms: _17  and  _18
REMARK    4  A    between atoms: _25  and  _26
REMARK    5  A    between atoms: _33  and  _34
REMARK    6  A    between atoms: _39  and  _41
REMARK    7  A    between atoms: _41  and  _42
REMARK    8  A    between atoms: _44  and  _46
REMARK    9  A    between atoms: _46  and  _47
REMARK   10  A    between atoms: _46  and  _49
REMARK   11  A    between atoms: _49  and  _50
REMARK   12  A    between atoms: _60  and  _62
REMARK   13  A    between atoms: _62  and  _63
REMARK   14  A    between atoms: _62  and  _65
REMARK   15  A    between atoms: _65  and  _66
REMARK   16  A    between atoms: _69  and  _71
REMARK   17  A    between atoms: _71  and  _72
REMARK   18  A    between atoms: _71  and  _74
REMARK   19  A    between atoms: _74  and  _75
REMARK   20  A    between atoms: _80  and  _81
REMARK   21  A    between atoms: _83  and  _85
REMARK   22  A    between atoms: _85  and  _86
REMARK   23  A    between atoms: _85  and  _88
REMARK   24  A    between atoms: _88  and  _89
REMARK   25  A    between atoms: _89  and  _90
REMARK   26  A    between atoms: _92  and  _94
REMARK   27  A    between atoms: _94  and  _95
REMARK   28  A    between atoms: _94  and  _97
REMARK   29  A    between atoms: _97  and  _98
REMARK   30  A    between atoms: _101  and  _103
REMARK   31  A    between atoms: _103  and  _104
REMARK   32  A    between atoms: _103  and  _106
REMARK   33  A    between atoms: _106  and  _107
REMARK   34  A    between atoms: _107  and  _109
REMARK   35  A    between atoms: _109  and  ZN_423
REMARK   36  A    between atoms: _111  and  _112
REMARK   37  A    between atoms: _117  and  _119
REMARK   38  A    between atoms: _119  and  _120
REMARK   39  A    between atoms: _119  and  _122
REMARK   40  A    between atoms: _122  and  _123
REMARK   41  A    between atoms: _129  and  _131
REMARK   42  A    between atoms: _131  and  _132
REMARK   43  A    between atoms: _131  and  _134
REMARK   44  A    between atoms: _134  and  _135
REMARK   45  A    between atoms: _135  and  _136
REMARK   46  A    between atoms: _136  and  _137
REMARK   47  A    between atoms: _146  and  _148
REMARK   48  A    between atoms: _148  and  _149
REMARK   49  A    between atoms: _148  and  _151
REMARK   50  A    between atoms: _151  and  _152
REMARK   51  A    between atoms: _157  and  _158
REMARK   52  A    between atoms: _160  and  _162
REMARK   53  A    between atoms: _162  and  _163
REMARK   54  A    between atoms: _162  and  _165
REMARK   55  A    between atoms: _165  and  _166
REMARK   56  A    between atoms: _168  and  _170
REMARK   57  A    between atoms: _170  and  _171
REMARK   58  A    between atoms: _170  and  _173
REMARK   59  A    between atoms: _173  and  _174
REMARK   60  A    between atoms: _179  and  _180
REMARK   61  A    between atoms: _182  and  _184
REMARK   62  A    between atoms: _184  and  _185
REMARK   63  A    between atoms: _184  and  _187
REMARK   64  A    between atoms: _187  and  _188
REMARK   65  A    between atoms: _191  and  _193
REMARK   66  A    between atoms: _193  and  _194
REMARK   67  A    between atoms: _193  and  _196
REMARK   68  A    between atoms: _196  and  _197
REMARK   69  A    between atoms: _197  and  _198
REMARK   70  A    between atoms: _198  and  _199
REMARK   71  A    between atoms: _208  and  _210
REMARK   72  A    between atoms: _210  and  _211
REMARK   73  A    between atoms: _210  and  _213
REMARK   74  A    between atoms: _213  and  _214
REMARK   75  A    between atoms: _217  and  _219
REMARK   76  A    between atoms: _219  and  _220
REMARK   77  A    between atoms: _219  and  _222
REMARK   78  A    between atoms: _222  and  _223
REMARK   79  A    between atoms: _226  and  _228
REMARK   80  A    between atoms: _228  and  _229
REMARK   81  A    between atoms: _228  and  _231
REMARK   82  A    between atoms: _231  and  _232
REMARK   83  A    between atoms: _238  and  _240
REMARK   84  A    between atoms: _240  and  _241
REMARK   85  A    between atoms: _240  and  _243
REMARK   86  A    between atoms: _243  and  _244
REMARK   87  A    between atoms: _249  and  _250
REMARK   88  A    between atoms: _252  and  _254
REMARK   89  A    between atoms: _254  and  _255
REMARK   90  A    between atoms: _254  and  _257
REMARK   91  A    between atoms: _257  and  _258
REMARK   92  A    between atoms: _261  and  _263
REMARK   93  A    between atoms: _263  and  _264
REMARK   94  A    between atoms: _263  and  _266
REMARK   95  A    between atoms: _266  and  _267
REMARK   96  A    between atoms: _267  and  _268
REMARK   97  A    between atoms: _268  and  _269
REMARK   98  A    between atoms: _278  and  _280
REMARK   99  A    between atoms: _280  and  _281
REMARK  100  A    between atoms: _280  and  _283
REMARK  101  A    between atoms: _283  and  _284
REMARK  102  A    between atoms: _294  and  _296
REMARK  103  A    between atoms: _296  and  _297
REMARK  104  A    between atoms: _296  and  _299
REMARK  105  A    between atoms: _299  and  _300
REMARK  106  A    between atoms: _305  and  _307
REMARK  107  A    between atoms: _307  and  _308
REMARK  108  A    between atoms: _307  and  _310
REMARK  109  A    between atoms: _310  and  _311
REMARK  110  A    between atoms: _315  and  ZN_423
REMARK  111  A    between atoms: _316  and  _318
REMARK  112  A    between atoms: _318  and  _319
REMARK  113  A    between atoms: _318  and  _321
REMARK  114  A    between atoms: _321  and  _322
REMARK  115  A    between atoms: _325  and  _327
REMARK  116  A    between atoms: _327  and  _328
REMARK  117  A    between atoms: _330  and  _332
REMARK  118  A    between atoms: _332  and  _333
REMARK  119  A    between atoms: _332  and  _335
REMARK  120  A    between atoms: _335  and  _336
REMARK  121  A    between atoms: _339  and  _341
REMARK  122  A    between atoms: _341  and  _342
REMARK  123  A    between atoms: _341  and  _344
REMARK  124  A    between atoms: _344  and  _345
REMARK  125  A    between atoms: _348  and  _350
REMARK  126  A    between atoms: _350  and  _351
REMARK  127  A    between atoms: _354  and  _356
REMARK  128  A    between atoms: _356  and  _357
REMARK  129  A    between atoms: _356  and  _359
REMARK  130  A    between atoms: _359  and  _360
REMARK  131  A    between atoms: _365  and  _366
REMARK  132  A    between atoms: _368  and  _370
REMARK  133  A    between atoms: _370  and  _371
REMARK  134  A    between atoms: _370  and  _373
REMARK  135  A    between atoms: _373  and  _374
REMARK  136  A    between atoms: _377  and  _379
REMARK  137  A    between atoms: _379  and  _380
REMARK  138  A    between atoms: _379  and  _382
REMARK  139  A    between atoms: _382  and  _383
REMARK  140  A    between atoms: _383  and  _384
REMARK  141  A    between atoms: _387  and  _389
REMARK  142  A    between atoms: _389  and  _390
REMARK  143  A    between atoms: _389  and  _392
REMARK  144  A    between atoms: _392  and  _393
REMARK  145  A    between atoms: _393  and  _394
REMARK  146  A    between atoms: _394  and  _395
REMARK  147  A    between atoms: _404  and  _406
REMARK  148  A    between atoms: _406  and  _407
REMARK  149  A    between atoms: _409  and  _411
REMARK  150  A    between atoms: _411  and  _412
REMARK  151  A    between atoms: _411  and  _414
REMARK  152  A    between atoms: _414  and  _415
REMARK  153  A    between atoms: _418  and  _420
REMARK  154  A    between atoms: _420  and  _421
REMARK                            x       y       z     vdW  Elec       q    Type
REMARK                         _______ _______ _______ _____ _____    ______ ____
ROOT
ATOM      1  O   HOH     1      37.622  59.015  11.272  0.00  0.00    +0.000 OA
ENDROOT
TORSDOF 0
REMARK  Name = ../refined-set-2016/3d50/3d50_pocket.pdb
REMARK  154 active torsions:
REMARK  status: ('A' for Active; 'I' for Inactive)
REMARK    1  A    between atoms: _1  and  _3
REMARK    2  A    between atoms: _14  and  _17
REMARK    3  A    between atoms: _17  and  _18
REMARK    4  A    between atoms: _25  and  _26
REMARK    5  A    between atoms: _33  and  _34
REMARK    6  A    between atoms: _39  and  _41
REMARK    7  A    between atoms: _41  and  _42
REMARK    8  A    between atoms: _44  and  _46
REMARK    9  A    between atoms: _46  and  _47
REMARK   10  A    between atoms: _46  and  _49
REMARK   11  A    between atoms: _49  and  _50
REMARK   12  A    between atoms: _60  and  _62
REMARK   13  A    between atoms: _62  and  _63
REMARK   14  A    between atoms: _62  and  _65
REMARK   15  A    between atoms: _65  and  _66
REMARK   16  A    between atoms: _69  and  _71
REMARK   17  A    between atoms: _71  and  _72
REMARK   18  A    between atoms: _71  and  _74
REMARK   19  A    between atoms: _74  and  _75
REMARK   20  A    between atoms: _80  and  _81
REMARK   21  A    between atoms: _83  and  _85
REMARK   22  A    between atoms: _85  and  _86
REMARK   23  A    between atoms: _85  and  _88
REMARK   24  A    between atoms: _88  and  _89
REMARK   25  A    between atoms: _89  and  _90
REMARK   26  A    between atoms: _92  and  _94
REMARK   27  A    between atoms: _94  and  _95
REMARK   28  A    between atoms: _94  and  _97
REMARK   29  A    between atoms: _97  and  _98
REMARK   30  A    between atoms: _101  and  _103
REMARK   31  A    between atoms: _103  and  _104
REMARK   32  A    between atoms: _103  and  _106
REMARK   33  A    between atoms: _106  and  _107
REMARK   34  A    between atoms: _107  and  _109
REMARK   35  A    between atoms: _109  and  ZN_423
REMARK   36  A    between atoms: _111  and  _112
REMARK   37  A    between atoms: _117  and  _119
REMARK   38  A    between atoms: _119  and  _120
REMARK   39  A    between atoms: _119  and  _122
REMARK   40  A    between atoms: _122  and  _123
REMARK   41  A    between atoms: _129  and  _131
REMARK   42  A    between atoms: _131  and  _132
REMARK   43  A    between atoms: _131  and  _134
REMARK   44  A    between atoms: _134  and  _135
REMARK   45  A    between atoms: _135  and  _136
REMARK   46  A    between atoms: _136  and  _137
REMARK   47  A    between atoms: _146  and  _148
REMARK   48  A    between atoms: _148  and  _149
REMARK   49  A    between atoms: _148  and  _151
REMARK   50  A    between atoms: _151  and  _152
REMARK   51  A    between atoms: _157  and  _158
REMARK   52  A    between atoms: _160  and  _162
REMARK   53  A    between atoms: _162  and  _163
REMARK   54  A    between atoms: _162  and  _165
REMARK   55  A    between atoms: _165  and  _166
REMARK   56  A    between atoms: _168  and  _170
REMARK   57  A    between atoms: _170  and  _171
REMARK   58  A    between atoms: _170  and  _173
REMARK   59  A    between atoms: _173  and  _174
REMARK   60  A    between atoms: _179  and  _180
REMARK   61  A    between atoms: _182  and  _184
REMARK   62  A    between atoms: _184  and  _185
REMARK   63  A    between atoms: _184  and  _187
REMARK   64  A    between atoms: _187  and  _188
REMARK   65  A    between atoms: _191  and  _193
REMARK   66  A    between atoms: _193  and  _194
REMARK   67  A    between atoms: _193  and  _196
REMARK   68  A    between atoms: _196  and  _197
REMARK   69  A    between atoms: _197  and  _198
REMARK   70  A    between atoms: _198  and  _199
REMARK   71  A    between atoms: _208  and  _210
REMARK   72  A    between atoms: _210  and  _211
REMARK   73  A    between atoms: _210  and  _213
REMARK   74  A    between atoms: _213  and  _214
REMARK   75  A    between atoms: _217  and  _219
REMARK   76  A    between atoms: _219  and  _220
REMARK   77  A    between atoms: _219  and  _222
REMARK   78  A    between atoms: _222  and  _223
REMARK   79  A    between atoms: _226  and  _228
REMARK   80  A    between atoms: _228  and  _229
REMARK   81  A    between atoms: _228  and  _231
REMARK   82  A    between atoms: _231  and  _232
REMARK   83  A    between atoms: _238  and  _240
REMARK   84  A    between atoms: _240  and  _241
REMARK   85  A    between atoms: _240  and  _243
REMARK   86  A    between atoms: _243  and  _244
REMARK   87  A    between atoms: _249  and  _250
REMARK   88  A    between atoms: _252  and  _254
REMARK   89  A    between atoms: _254  and  _255
REMARK   90  A    between atoms: _254  and  _257
REMARK   91  A    between atoms: _257  and  _258
REMARK   92  A    between atoms: _261  and  _263
REMARK   93  A    between atoms: _263  and  _264
REMARK   94  A    between atoms: _263  and  _266
REMARK   95  A    between atoms: _266  and  _267
REMARK   96  A    between atoms: _267  and  _268
REMARK   97  A    between atoms: _268  and  _269
REMARK   98  A    between atoms: _278  and  _280
REMARK   99  A    between atoms: _280  and  _281
REMARK  100  A    between atoms: _280  and  _283
REMARK  101  A    between atoms: _283  and  _284
REMARK  102  A    between atoms: _294  and  _296
REMARK  103  A    between atoms: _296  and  _297
REMARK  104  A    between atoms: _296  and  _299
REMARK  105  A    between atoms: _299  and  _300
REMARK  106  A    between atoms: _305  and  _307
REMARK  107  A    between atoms: _307  and  _308
REMARK  108  A    between atoms: _307  and  _310
REMARK  109  A    between atoms: _310  and  _311
REMARK  110  A    between atoms: _315  and  ZN_423
REMARK  111  A    between atoms: _316  and  _318
REMARK  112  A    between atoms: _318  and  _319
REMARK  113  A    between atoms: _318  and  _321
REMARK  114  A    between atoms: _321  and  _322
REMARK  115  A    between atoms: _325  and  _327
REMARK  116  A    between atoms: _327  and  _328
REMARK  117  A    between atoms: _330  and  _332
REMARK  118  A    between atoms: _332  and  _333
REMARK  119  A    between atoms: _332  and  _335
REMARK  120  A    between atoms: _335  and  _336
REMARK  121  A    between atoms: _339  and  _341
REMARK  122  A    between atoms: _341  and  _342
REMARK  123  A    between atoms: _341  and  _344
REMARK  124  A    between atoms: _344  and  _345
REMARK  125  A    between atoms: _348  and  _350
REMARK  126  A    between atoms: _350  and  _351
REMARK  127  A    between atoms: _354  and  _356
REMARK  128  A    between atoms: _356  and  _357
REMARK  129  A    between atoms: _356  and  _359
REMARK  130  A    between atoms: _359  and  _360
REMARK  131  A    between atoms: _365  and  _366
REMARK  132  A    between atoms: _368  and  _370
REMARK  133  A    between atoms: _370  and  _371
REMARK  134  A    between atoms: _370  and  _373
REMARK  135  A    between atoms: _373  and  _374
REMARK  136  A    between atoms: _377  and  _379
REMARK  137  A    between atoms: _379  and  _380
REMARK  138  A    between atoms: _379  and  _382
REMARK  139  A    between atoms: _382  and  _383
REMARK  140  A    between atoms: _383  and  _384
REMARK  141  A    between atoms: _387  and  _389
REMARK  142  A    between atoms: _389  and  _390
REMARK  143  A    between atoms: _389  and  _392
REMARK  144  A    between atoms: _392  and  _393
REMARK  145  A    between atoms: _393  and  _394
REMARK  146  A    between atoms: _394  and  _395
REMARK  147  A    between atoms: _404  and  _406
REMARK  148  A    between atoms: _406  and  _407
REMARK  149  A    between atoms: _409  and  _411
REMARK  150  A    between atoms: _411  and  _412
REMARK  151  A    between atoms: _411  and  _414
REMARK  152  A    between atoms: _414  and  _415
REMARK  153  A    between atoms: _418  and  _420
REMARK  154  A    between atoms: _420  and  _421
REMARK                            x       y       z     vdW  Elec       q    Type
REMARK                         _______ _______ _______ _____ _____    ______ ____
ROOT
ATOM      1  O   HOH     1      38.599  62.387   8.575  0.00  0.00    +0.000 OA
ENDROOT
TORSDOF 0
REMARK  Name = ../refined-set-2016/3d50/3d50_pocket.pdb
REMARK  154 active torsions:
REMARK  status: ('A' for Active; 'I' for Inactive)
REMARK    1  A    between atoms: _1  and  _3
REMARK    2  A    between atoms: _14  and  _17
REMARK    3  A    between atoms: _17  and  _18
REMARK    4  A    between atoms: _25  and  _26
REMARK    5  A    between atoms: _33  and  _34
REMARK    6  A    between atoms: _39  and  _41
REMARK    7  A    between atoms: _41  and  _42
REMARK    8  A    between atoms: _44  and  _46
REMARK    9  A    between atoms: _46  and  _47
REMARK   10  A    between atoms: _46  and  _49
REMARK   11  A    between atoms: _49  and  _50
REMARK   12  A    between atoms: _60  and  _62
REMARK   13  A    between atoms: _62  and  _63
REMARK   14  A    between atoms: _62  and  _65
REMARK   15  A    between atoms: _65  and  _66
REMARK   16  A    between atoms: _69  and  _71
REMARK   17  A    between atoms: _71  and  _72
REMARK   18  A    between atoms: _71  and  _74
REMARK   19  A    between atoms: _74  and  _75
REMARK   20  A    between atoms: _80  and  _81
REMARK   21  A    between atoms: _83  and  _85
REMARK   22  A    between atoms: _85  and  _86
REMARK   23  A    between atoms: _85  and  _88
REMARK   24  A    between atoms: _88  and  _89
REMARK   25  A    between atoms: _89  and  _90
REMARK   26  A    between atoms: _92  and  _94
REMARK   27  A    between atoms: _94  and  _95
REMARK   28  A    between atoms: _94  and  _97
REMARK   29  A    between atoms: _97  and  _98
REMARK   30  A    between atoms: _101  and  _103
REMARK   31  A    between atoms: _103  and  _104
REMARK   32  A    between atoms: _103  and  _106
REMARK   33  A    between atoms: _106  and  _107
REMARK   34  A    between atoms: _107  and  _109
REMARK   35  A    between atoms: _109  and  ZN_423
REMARK   36  A    between atoms: _111  and  _112
REMARK   37  A    between atoms: _117  and  _119
REMARK   38  A    between atoms: _119  and  _120
REMARK   39  A    between atoms: _119  and  _122
REMARK   40  A    between atoms: _122  and  _123
REMARK   41  A    between atoms: _129  and  _131
REMARK   42  A    between atoms: _131  and  _132
REMARK   43  A    between atoms: _131  and  _134
REMARK   44  A    between atoms: _134  and  _135
REMARK   45  A    between atoms: _135  and  _136
REMARK   46  A    between atoms: _136  and  _137
REMARK   47  A    between atoms: _146  and  _148
REMARK   48  A    between atoms: _148  and  _149
REMARK   49  A    between atoms: _148  and  _151
REMARK   50  A    between atoms: _151  and  _152
REMARK   51  A    between atoms: _157  and  _158
REMARK   52  A    between atoms: _160  and  _162
REMARK   53  A    between atoms: _162  and  _163
REMARK   54  A    between atoms: _162  and  _165
REMARK   55  A    between atoms: _165  and  _166
REMARK   56  A    between atoms: _168  and  _170
REMARK   57  A    between atoms: _170  and  _171
REMARK   58  A    between atoms: _170  and  _173
REMARK   59  A    between atoms: _173  and  _174
REMARK   60  A    between atoms: _179  and  _180
REMARK   61  A    between atoms: _182  and  _184
REMARK   62  A    between atoms: _184  and  _185
REMARK   63  A    between atoms: _184  and  _187
REMARK   64  A    between atoms: _187  and  _188
REMARK   65  A    between atoms: _191  and  _193
REMARK   66  A    between atoms: _193  and  _194
REMARK   67  A    between atoms: _193  and  _196
REMARK   68  A    between atoms: _196  and  _197
REMARK   69  A    between atoms: _197  and  _198
REMARK   70  A    between atoms: _198  and  _199
REMARK   71  A    between atoms: _208  and  _210
REMARK   72  A    between atoms: _210  and  _211
REMARK   73  A    between atoms: _210  and  _213
REMARK   74  A    between atoms: _213  and  _214
REMARK   75  A    between atoms: _217  and  _219
REMARK   76  A    between atoms: _219  and  _220
REMARK   77  A    between atoms: _219  and  _222
REMARK   78  A    between atoms: _222  and  _223
REMARK   79  A    between atoms: _226  and  _228
REMARK   80  A    between atoms: _228  and  _229
REMARK   81  A    between atoms: _228  and  _231
REMARK   82  A    between atoms: _231  and  _232
REMARK   83  A    between atoms: _238  and  _240
REMARK   84  A    between atoms: _240  and  _241
REMARK   85  A    between atoms: _240  and  _243
REMARK   86  A    between atoms: _243  and  _244
REMARK   87  A    between atoms: _249  and  _250
REMARK   88  A    between atoms: _252  and  _254
REMARK   89  A    between atoms: _254  and  _255
REMARK   90  A    between atoms: _254  and  _257
REMARK   91  A    between atoms: _257  and  _258
REMARK   92  A    between atoms: _261  and  _263
REMARK   93  A    between atoms: _263  and  _264
REMARK   94  A    between atoms: _263  and  _266
REMARK   95  A    between atoms: _266  and  _267
REMARK   96  A    between atoms: _267  and  _268
REMARK   97  A    between atoms: _268  and  _269
REMARK   98  A    between atoms: _278  and  _280
REMARK   99  A    between atoms: _280  and  _281
REMARK  100  A    between atoms: _280  and  _283
REMARK  101  A    between atoms: _283  and  _284
REMARK  102  A    between atoms: _294  and  _296
REMARK  103  A    between atoms: _296  and  _297
REMARK  104  A    between atoms: _296  and  _299
REMARK  105  A    between atoms: _299  and  _300
REMARK  106  A    between atoms: _305  and  _307
REMARK  107  A    between atoms: _307  and  _308
REMARK  108  A    between atoms: _307  and  _310
REMARK  109  A    between atoms: _310  and  _311
REMARK  110  A    between atoms: _315  and  ZN_423
REMARK  111  A    between atoms: _316  and  _318
REMARK  112  A    between atoms: _318  and  _319
REMARK  113  A    between atoms: _318  and  _321
REMARK  114  A    between atoms: _321  and  _322
REMARK  115  A    between atoms: _325  and  _327
REMARK  116  A    between atoms: _327  and  _328
REMARK  117  A    between atoms: _330  and  _332
REMARK  118  A    between atoms: _332  and  _333
REMARK  119  A    between atoms: _332  and  _335
REMARK  120  A    between atoms: _335  and  _336
REMARK  121  A    between atoms: _339  and  _341
REMARK  122  A    between atoms: _341  and  _342
REMARK  123  A    between atoms: _341  and  _344
REMARK  124  A    between atoms: _344  and  _345
REMARK  125  A    between atoms: _348  and  _350
REMARK  126  A    between atoms: _350  and  _351
REMARK  127  A    between atoms: _354  and  _356
REMARK  128  A    between atoms: _356  and  _357
REMARK  129  A    between atoms: _356  and  _359
REMARK  130  A    between atoms: _359  and  _360
REMARK  131  A    between atoms: _365  and  _366
REMARK  132  A    between atoms: _368  and  _370
REMARK  133  A    between atoms: _370  and  _371
REMARK  134  A    between atoms: _370  and  _373
REMARK  135  A    between atoms: _373  and  _374
REMARK  136  A    between atoms: _377  and  _379
REMARK  137  A    between atoms: _379  and  _380
REMARK  138  A    between atoms: _379  and  _382
REMARK  139  A    between atoms: _382  and  _383
REMARK  140  A    between atoms: _383  and  _384
REMARK  141  A    between atoms: _387  and  _389
REMARK  142  A    between atoms: _389  and  _390
REMARK  143  A    between atoms: _389  and  _392
REMARK  144  A    between atoms: _392  and  _393
REMARK  145  A    between atoms: _393  and  _394
REMARK  146  A    between atoms: _394  and  _395
REMARK  147  A    between atoms: _404  and  _406
REMARK  148  A    between atoms: _406  and  _407
REMARK  149  A    between atoms: _409  and  _411
REMARK  150  A    between atoms: _411  and  _412
REMARK  151  A    between atoms: _411  and  _414
REMARK  152  A    between atoms: _414  and  _415
REMARK  153  A    between atoms: _418  and  _420
REMARK  154  A    between atoms: _420  and  _421
REMARK                            x       y       z     vdW  Elec       q    Type
REMARK                         _______ _______ _______ _____ _____    ______ ____
ROOT
ATOM      1  O   HOH     1      40.082  62.819   6.342  0.00  0.00    +0.000 OA
ENDROOT
TORSDOF 0
REMARK  Name = ../refined-set-2016/3d50/3d50_pocket.pdb
REMARK  154 active torsions:
REMARK  status: ('A' for Active; 'I' for Inactive)
REMARK    1  A    between atoms: _1  and  _3
REMARK    2  A    between atoms: _14  and  _17
REMARK    3  A    between atoms: _17  and  _18
REMARK    4  A    between atoms: _25  and  _26
REMARK    5  A    between atoms: _33  and  _34
REMARK    6  A    between atoms: _39  and  _41
REMARK    7  A    between atoms: _41  and  _42
REMARK    8  A    between atoms: _44  and  _46
REMARK    9  A    between atoms: _46  and  _47
REMARK   10  A    between atoms: _46  and  _49
REMARK   11  A    between atoms: _49  and  _50
REMARK   12  A    between atoms: _60  and  _62
REMARK   13  A    between atoms: _62  and  _63
REMARK   14  A    between atoms: _62  and  _65
REMARK   15  A    between atoms: _65  and  _66
REMARK   16  A    between atoms: _69  and  _71
REMARK   17  A    between atoms: _71  and  _72
REMARK   18  A    between atoms: _71  and  _74
REMARK   19  A    between atoms: _74  and  _75
REMARK   20  A    between atoms: _80  and  _81
REMARK   21  A    between atoms: _83  and  _85
REMARK   22  A    between atoms: _85  and  _86
REMARK   23  A    between atoms: _85  and  _88
REMARK   24  A    between atoms: _88  and  _89
REMARK   25  A    between atoms: _89  and  _90
REMARK   26  A    between atoms: _92  and  _94
REMARK   27  A    between atoms: _94  and  _95
REMARK   28  A    between atoms: _94  and  _97
REMARK   29  A    between atoms: _97  and  _98
REMARK   30  A    between atoms: _101  and  _103
REMARK   31  A    between atoms: _103  and  _104
REMARK   32  A    between atoms: _103  and  _106
REMARK   33  A    between atoms: _106  and  _107
REMARK   34  A    between atoms: _107  and  _109
REMARK   35  A    between atoms: _109  and  ZN_423
REMARK   36  A    between atoms: _111  and  _112
REMARK   37  A    between atoms: _117  and  _119
REMARK   38  A    between atoms: _119  and  _120
REMARK   39  A    between atoms: _119  and  _122
REMARK   40  A    between atoms: _122  and  _123
REMARK   41  A    between atoms: _129  and  _131
REMARK   42  A    between atoms: _131  and  _132
REMARK   43  A    between atoms: _131  and  _134
REMARK   44  A    between atoms: _134  and  _135
REMARK   45  A    between atoms: _135  and  _136
REMARK   46  A    between atoms: _136  and  _137
REMARK   47  A    between atoms: _146  and  _148
REMARK   48  A    between atoms: _148  and  _149
REMARK   49  A    between atoms: _148  and  _151
REMARK   50  A    between atoms: _151  and  _152
REMARK   51  A    between atoms: _157  and  _158
REMARK   52  A    between atoms: _160  and  _162
REMARK   53  A    between atoms: _162  and  _163
REMARK   54  A    between atoms: _162  and  _165
REMARK   55  A    between atoms: _165  and  _166
REMARK   56  A    between atoms: _168  and  _170
REMARK   57  A    between atoms: _170  and  _171
REMARK   58  A    between atoms: _170  and  _173
REMARK   59  A    between atoms: _173  and  _174
REMARK   60  A    between atoms: _179  and  _180
REMARK   61  A    between atoms: _182  and  _184
REMARK   62  A    between atoms: _184  and  _185
REMARK   63  A    between atoms: _184  and  _187
REMARK   64  A    between atoms: _187  and  _188
REMARK   65  A    between atoms: _191  and  _193
REMARK   66  A    between atoms: _193  and  _194
REMARK   67  A    between atoms: _193  and  _196
REMARK   68  A    between atoms: _196  and  _197
REMARK   69  A    between atoms: _197  and  _198
REMARK   70  A    between atoms: _198  and  _199
REMARK   71  A    between atoms: _208  and  _210
REMARK   72  A    between atoms: _210  and  _211
REMARK   73  A    between atoms: _210  and  _213
REMARK   74  A    between atoms: _213  and  _214
REMARK   75  A    between atoms: _217  and  _219
REMARK   76  A    between atoms: _219  and  _220
REMARK   77  A    between atoms: _219  and  _222
REMARK   78  A    between atoms: _222  and  _223
REMARK   79  A    between atoms: _226  and  _228
REMARK   80  A    between atoms: _228  and  _229
REMARK   81  A    between atoms: _228  and  _231
REMARK   82  A    between atoms: _231  and  _232
REMARK   83  A    between atoms: _238  and  _240
REMARK   84  A    between atoms: _240  and  _241
REMARK   85  A    between atoms: _240  and  _243
REMARK   86  A    between atoms: _243  and  _244
REMARK   87  A    between atoms: _249  and  _250
REMARK   88  A    between atoms: _252  and  _254
REMARK   89  A    between atoms: _254  and  _255
REMARK   90  A    between atoms: _254  and  _257
REMARK   91  A    between atoms: _257  and  _258
REMARK   92  A    between atoms: _261  and  _263
REMARK   93  A    between atoms: _263  and  _264
REMARK   94  A    between atoms: _263  and  _266
REMARK   95  A    between atoms: _266  and  _267
REMARK   96  A    between atoms: _267  and  _268
REMARK   97  A    between atoms: _268  and  _269
REMARK   98  A    between atoms: _278  and  _280
REMARK   99  A    between atoms: _280  and  _281
REMARK  100  A    between atoms: _280  and  _283
REMARK  101  A    between atoms: _283  and  _284
REMARK  102  A    between atoms: _294  and  _296
REMARK  103  A    between atoms: _296  and  _297
REMARK  104  A    between atoms: _296  and  _299
REMARK  105  A    between atoms: _299  and  _300
REMARK  106  A    between atoms: _305  and  _307
REMARK  107  A    between atoms: _307  and  _308
REMARK  108  A    between atoms: _307  and  _310
REMARK  109  A    between atoms: _310  and  _311
REMARK  110  A    between atoms: _315  and  ZN_423
REMARK  111  A    between atoms: _316  and  _318
REMARK  112  A    between atoms: _318  and  _319
REMARK  113  A    between atoms: _318  and  _321
REMARK  114  A    between atoms: _321  and  _322
REMARK  115  A    between atoms: _325  and  _327
REMARK  116  A    between atoms: _327  and  _328
REMARK  117  A    between atoms: _330  and  _332
REMARK  118  A    between atoms: _332  and  _333
REMARK  119  A    between atoms: _332  and  _335
REMARK  120  A    between atoms: _335  and  _336
REMARK  121  A    between atoms: _339  and  _341
REMARK  122  A    between atoms: _341  and  _342
REMARK  123  A    between atoms: _341  and  _344
REMARK  124  A    between atoms: _344  and  _345
REMARK  125  A    between atoms: _348  and  _350
REMARK  126  A    between atoms: _350  and  _351
REMARK  127  A    between atoms: _354  and  _356
REMARK  128  A    between atoms: _356  and  _357
REMARK  129  A    between atoms: _356  and  _359
REMARK  130  A    between atoms: _359  and  _360
REMARK  131  A    between atoms: _365  and  _366
REMARK  132  A    between atoms: _368  and  _370
REMARK  133  A    between atoms: _370  and  _371
REMARK  134  A    between atoms: _370  and  _373
REMARK  135  A    between atoms: _373  and  _374
REMARK  136  A    between atoms: _377  and  _379
REMARK  137  A    between atoms: _379  and  _380
REMARK  138  A    between atoms: _379  and  _382
REMARK  139  A    between atoms: _382  and  _383
REMARK  140  A    between atoms: _383  and  _384
REMARK  141  A    between atoms: _387  and  _389
REMARK  142  A    between atoms: _389  and  _390
REMARK  143  A    between atoms: _389  and  _392
REMARK  144  A    between atoms: _392  and  _393
REMARK  145  A    between atoms: _393  and  _394
REMARK  146  A    between atoms: _394  and  _395
REMARK  147  A    between atoms: _404  and  _406
REMARK  148  A    between atoms: _406  and  _407
REMARK  149  A    between atoms: _409  and  _411
REMARK  150  A    between atoms: _411  and  _412
REMARK  151  A    between atoms: _411  and  _414
REMARK  152  A    between atoms: _414  and  _415
REMARK  153  A    between atoms: _418  and  _420
REMARK  154  A    between atoms: _420  and  _421
REMARK                            x       y       z     vdW  Elec       q    Type
REMARK                         _______ _______ _______ _____ _____    ______ ____
ROOT
ATOM      1  O   HOH     1      20.646  65.420   7.872  0.00  0.00    +0.000 OA
ENDROOT
TORSDOF 0
REMARK  Name = ../refined-set-2016/3d50/3d50_pocket.pdb
REMARK  154 active torsions:
REMARK  status: ('A' for Active; 'I' for Inactive)
REMARK    1  A    between atoms: _1  and  _3
REMARK    2  A    between atoms: _14  and  _17
REMARK    3  A    between atoms: _17  and  _18
REMARK    4  A    between atoms: _25  and  _26
REMARK    5  A    between atoms: _33  and  _34
REMARK    6  A    between atoms: _39  and  _41
REMARK    7  A    between atoms: _41  and  _42
REMARK    8  A    between atoms: _44  and  _46
REMARK    9  A    between atoms: _46  and  _47
REMARK   10  A    between atoms: _46  and  _49
REMARK   11  A    between atoms: _49  and  _50
REMARK   12  A    between atoms: _60  and  _62
REMARK   13  A    between atoms: _62  and  _63
REMARK   14  A    between atoms: _62  and  _65
REMARK   15  A    between atoms: _65  and  _66
REMARK   16  A    between atoms: _69  and  _71
REMARK   17  A    between atoms: _71  and  _72
REMARK   18  A    between atoms: _71  and  _74
REMARK   19  A    between atoms: _74  and  _75
REMARK   20  A    between atoms: _80  and  _81
REMARK   21  A    between atoms: _83  and  _85
REMARK   22  A    between atoms: _85  and  _86
REMARK   23  A    between atoms: _85  and  _88
REMARK   24  A    between atoms: _88  and  _89
REMARK   25  A    between atoms: _89  and  _90
REMARK   26  A    between atoms: _92  and  _94
REMARK   27  A    between atoms: _94  and  _95
REMARK   28  A    between atoms: _94  and  _97
REMARK   29  A    between atoms: _97  and  _98
REMARK   30  A    between atoms: _101  and  _103
REMARK   31  A    between atoms: _103  and  _104
REMARK   32  A    between atoms: _103  and  _106
REMARK   33  A    between atoms: _106  and  _107
REMARK   34  A    between atoms: _107  and  _109
REMARK   35  A    between atoms: _109  and  ZN_423
REMARK   36  A    between atoms: _111  and  _112
REMARK   37  A    between atoms: _117  and  _119
REMARK   38  A    between atoms: _119  and  _120
REMARK   39  A    between atoms: _119  and  _122
REMARK   40  A    between atoms: _122  and  _123
REMARK   41  A    between atoms: _129  and  _131
REMARK   42  A    between atoms: _131  and  _132
REMARK   43  A    between atoms: _131  and  _134
REMARK   44  A    between atoms: _134  and  _135
REMARK   45  A    between atoms: _135  and  _136
REMARK   46  A    between atoms: _136  and  _137
REMARK   47  A    between atoms: _146  and  _148
REMARK   48  A    between atoms: _148  and  _149
REMARK   49  A    between atoms: _148  and  _151
REMARK   50  A    between atoms: _151  and  _152
REMARK   51  A    between atoms: _157  and  _158
REMARK   52  A    between atoms: _160  and  _162
REMARK   53  A    between atoms: _162  and  _163
REMARK   54  A    between atoms: _162  and  _165
REMARK   55  A    between atoms: _165  and  _166
REMARK   56  A    between atoms: _168  and  _170
REMARK   57  A    between atoms: _170  and  _171
REMARK   58  A    between atoms: _170  and  _173
REMARK   59  A    between atoms: _173  and  _174
REMARK   60  A    between atoms: _179  and  _180
REMARK   61  A    between atoms: _182  and  _184
REMARK   62  A    between atoms: _184  and  _185
REMARK   63  A    between atoms: _184  and  _187
REMARK   64  A    between atoms: _187  and  _188
REMARK   65  A    between atoms: _191  and  _193
REMARK   66  A    between atoms: _193  and  _194
REMARK   67  A    between atoms: _193  and  _196
REMARK   68  A    between atoms: _196  and  _197
REMARK   69  A    between atoms: _197  and  _198
REMARK   70  A    between atoms: _198  and  _199
REMARK   71  A    between atoms: _208  and  _210
REMARK   72  A    between atoms: _210  and  _211
REMARK   73  A    between atoms: _210  and  _213
REMARK   74  A    between atoms: _213  and  _214
REMARK   75  A    between atoms: _217  and  _219
REMARK   76  A    between atoms: _219  and  _220
REMARK   77  A    between atoms: _219  and  _222
REMARK   78  A    between atoms: _222  and  _223
REMARK   79  A    between atoms: _226  and  _228
REMARK   80  A    between atoms: _228  and  _229
REMARK   81  A    between atoms: _228  and  _231
REMARK   82  A    between atoms: _231  and  _232
REMARK   83  A    between atoms: _238  and  _240
REMARK   84  A    between atoms: _240  and  _241
REMARK   85  A    between atoms: _240  and  _243
REMARK   86  A    between atoms: _243  and  _244
REMARK   87  A    between atoms: _249  and  _250
REMARK   88  A    between atoms: _252  and  _254
REMARK   89  A    between atoms: _254  and  _255
REMARK   90  A    between atoms: _254  and  _257
REMARK   91  A    between atoms: _257  and  _258
REMARK   92  A    between atoms: _261  and  _263
REMARK   93  A    between atoms: _263  and  _264
REMARK   94  A    between atoms: _263  and  _266
REMARK   95  A    between atoms: _266  and  _267
REMARK   96  A    between atoms: _267  and  _268
REMARK   97  A    between atoms: _268  and  _269
REMARK   98  A    between atoms: _278  and  _280
REMARK   99  A    between atoms: _280  and  _281
REMARK  100  A    between atoms: _280  and  _283
REMARK  101  A    between atoms: _283  and  _284
REMARK  102  A    between atoms: _294  and  _296
REMARK  103  A    between atoms: _296  and  _297
REMARK  104  A    between atoms: _296  and  _299
REMARK  105  A    between atoms: _299  and  _300
REMARK  106  A    between atoms: _305  and  _307
REMARK  107  A    between atoms: _307  and  _308
REMARK  108  A    between atoms: _307  and  _310
REMARK  109  A    between atoms: _310  and  _311
REMARK  110  A    between atoms: _315  and  ZN_423
REMARK  111  A    between atoms: _316  and  _318
REMARK  112  A    between atoms: _318  and  _319
REMARK  113  A    between atoms: _318  and  _321
REMARK  114  A    between atoms: _321  and  _322
REMARK  115  A    between atoms: _325  and  _327
REMARK  116  A    between atoms: _327  and  _328
REMARK  117  A    between atoms: _330  and  _332
REMARK  118  A    between atoms: _332  and  _333
REMARK  119  A    between atoms: _332  and  _335
REMARK  120  A    between atoms: _335  and  _336
REMARK  121  A    between atoms: _339  and  _341
REMARK  122  A    between atoms: _341  and  _342
REMARK  123  A    between atoms: _341  and  _344
REMARK  124  A    between atoms: _344  and  _345
REMARK  125  A    between atoms: _348  and  _350
REMARK  126  A    between atoms: _350  and  _351
REMARK  127  A    between atoms: _354  and  _356
REMARK  128  A    between atoms: _356  and  _357
REMARK  129  A    between atoms: _356  and  _359
REMARK  130  A    between atoms: _359  and  _360
REMARK  131  A    between atoms: _365  and  _366
REMARK  132  A    between atoms: _368  and  _370
REMARK  133  A    between atoms: _370  and  _371
REMARK  134  A    between atoms: _370  and  _373
REMARK  135  A    between atoms: _373  and  _374
REMARK  136  A    between atoms: _377  and  _379
REMARK  137  A    between atoms: _379  and  _380
REMARK  138  A    between atoms: _379  and  _382
REMARK  139  A    between atoms: _382  and  _383
REMARK  140  A    between atoms: _383  and  _384
REMARK  141  A    between atoms: _387  and  _389
REMARK  142  A    between atoms: _389  and  _390
REMARK  143  A    between atoms: _389  and  _392
REMARK  144  A    between atoms: _392  and  _393
REMARK  145  A    between atoms: _393  and  _394
REMARK  146  A    between atoms: _394  and  _395
REMARK  147  A    between atoms: _404  and  _406
REMARK  148  A    between atoms: _406  and  _407
REMARK  149  A    between atoms: _409  and  _411
REMARK  150  A    between atoms: _411  and  _412
REMARK  151  A    between atoms: _411  and  _414
REMARK  152  A    between atoms: _414  and  _415
REMARK  153  A    between atoms: _418  and  _420
REMARK  154  A    between atoms: _420  and  _421
REMARK                            x       y       z     vdW  Elec       q    Type
REMARK                         _______ _______ _______ _____ _____    ______ ____
ROOT
ATOM      1  O   HOH     1      20.397  68.369   8.454  0.00  0.00    +0.000 OA
ENDROOT
TORSDOF 0
REMARK  Name = ../refined-set-2016/3d50/3d50_pocket.pdb
REMARK  154 active torsions:
REMARK  status: ('A' for Active; 'I' for Inactive)
REMARK    1  A    between atoms: _1  and  _3
REMARK    2  A    between atoms: _14  and  _17
REMARK    3  A    between atoms: _17  and  _18
REMARK    4  A    between atoms: _25  and  _26
REMARK    5  A    between atoms: _33  and  _34
REMARK    6  A    between atoms: _39  and  _41
REMARK    7  A    between atoms: _41  and  _42
REMARK    8  A    between atoms: _44  and  _46
REMARK    9  A    between atoms: _46  and  _47
REMARK   10  A    between atoms: _46  and  _49
REMARK   11  A    between atoms: _49  and  _50
REMARK   12  A    between atoms: _60  and  _62
REMARK   13  A    between atoms: _62  and  _63
REMARK   14  A    between atoms: _62  and  _65
REMARK   15  A    between atoms: _65  and  _66
REMARK   16  A    between atoms: _69  and  _71
REMARK   17  A    between atoms: _71  and  _72
REMARK   18  A    between atoms: _71  and  _74
REMARK   19  A    between atoms: _74  and  _75
REMARK   20  A    between atoms: _80  and  _81
REMARK   21  A    between atoms: _83  and  _85
REMARK   22  A    between atoms: _85  and  _86
REMARK   23  A    between atoms: _85  and  _88
REMARK   24  A    between atoms: _88  and  _89
REMARK   25  A    between atoms: _89  and  _90
REMARK   26  A    between atoms: _92  and  _94
REMARK   27  A    between atoms: _94  and  _95
REMARK   28  A    between atoms: _94  and  _97
REMARK   29  A    between atoms: _97  and  _98
REMARK   30  A    between atoms: _101  and  _103
REMARK   31  A    between atoms: _103  and  _104
REMARK   32  A    between atoms: _103  and  _106
REMARK   33  A    between atoms: _106  and  _107
REMARK   34  A    between atoms: _107  and  _109
REMARK   35  A    between atoms: _109  and  ZN_423
REMARK   36  A    between atoms: _111  and  _112
REMARK   37  A    between atoms: _117  and  _119
REMARK   38  A    between atoms: _119  and  _120
REMARK   39  A    between atoms: _119  and  _122
REMARK   40  A    between atoms: _122  and  _123
REMARK   41  A    between atoms: _129  and  _131
REMARK   42  A    between atoms: _131  and  _132
REMARK   43  A    between atoms: _131  and  _134
REMARK   44  A    between atoms: _134  and  _135
REMARK   45  A    between atoms: _135  and  _136
REMARK   46  A    between atoms: _136  and  _137
REMARK   47  A    between atoms: _146  and  _148
REMARK   48  A    between atoms: _148  and  _149
REMARK   49  A    between atoms: _148  and  _151
REMARK   50  A    between atoms: _151  and  _152
REMARK   51  A    between atoms: _157  and  _158
REMARK   52  A    between atoms: _160  and  _162
REMARK   53  A    between atoms: _162  and  _163
REMARK   54  A    between atoms: _162  and  _165
REMARK   55  A    between atoms: _165  and  _166
REMARK   56  A    between atoms: _168  and  _170
REMARK   57  A    between atoms: _170  and  _171
REMARK   58  A    between atoms: _170  and  _173
REMARK   59  A    between atoms: _173  and  _174
REMARK   60  A    between atoms: _179  and  _180
REMARK   61  A    between atoms: _182  and  _184
REMARK   62  A    between atoms: _184  and  _185
REMARK   63  A    between atoms: _184  and  _187
REMARK   64  A    between atoms: _187  and  _188
REMARK   65  A    between atoms: _191  and  _193
REMARK   66  A    between atoms: _193  and  _194
REMARK   67  A    between atoms: _193  and  _196
REMARK   68  A    between atoms: _196  and  _197
REMARK   69  A    between atoms: _197  and  _198
REMARK   70  A    between atoms: _198  and  _199
REMARK   71  A    between atoms: _208  and  _210
REMARK   72  A    between atoms: _210  and  _211
REMARK   73  A    between atoms: _210  and  _213
REMARK   74  A    between atoms: _213  and  _214
REMARK   75  A    between atoms: _217  and  _219
REMARK   76  A    between atoms: _219  and  _220
REMARK   77  A    between atoms: _219  and  _222
REMARK   78  A    between atoms: _222  and  _223
REMARK   79  A    between atoms: _226  and  _228
REMARK   80  A    between atoms: _228  and  _229
REMARK   81  A    between atoms: _228  and  _231
REMARK   82  A    between atoms: _231  and  _232
REMARK   83  A    between atoms: _238  and  _240
REMARK   84  A    between atoms: _240  and  _241
REMARK   85  A    between atoms: _240  and  _243
REMARK   86  A    between atoms: _243  and  _244
REMARK   87  A    between atoms: _249  and  _250
REMARK   88  A    between atoms: _252  and  _254
REMARK   89  A    between atoms: _254  and  _255
REMARK   90  A    between atoms: _254  and  _257
REMARK   91  A    between atoms: _257  and  _258
REMARK   92  A    between atoms: _261  and  _263
REMARK   93  A    between atoms: _263  and  _264
REMARK   94  A    between atoms: _263  and  _266
REMARK   95  A    between atoms: _266  and  _267
REMARK   96  A    between atoms: _267  and  _268
REMARK   97  A    between atoms: _268  and  _269
REMARK   98  A    between atoms: _278  and  _280
REMARK   99  A    between atoms: _280  and  _281
REMARK  100  A    between atoms: _280  and  _283
REMARK  101  A    between atoms: _283  and  _284
REMARK  102  A    between atoms: _294  and  _296
REMARK  103  A    between atoms: _296  and  _297
REMARK  104  A    between atoms: _296  and  _299
REMARK  105  A    between atoms: _299  and  _300
REMARK  106  A    between atoms: _305  and  _307
REMARK  107  A    between atoms: _307  and  _308
REMARK  108  A    between atoms: _307  and  _310
REMARK  109  A    between atoms: _310  and  _311
REMARK  110  A    between atoms: _315  and  ZN_423
REMARK  111  A    between atoms: _316  and  _318
REMARK  112  A    between atoms: _318  and  _319
REMARK  113  A    between atoms: _318  and  _321
REMARK  114  A    between atoms: _321  and  _322
REMARK  115  A    between atoms: _325  and  _327
REMARK  116  A    between atoms: _327  and  _328
REMARK  117  A    between atoms: _330  and  _332
REMARK  118  A    between atoms: _332  and  _333
REMARK  119  A    between atoms: _332  and  _335
REMARK  120  A    between atoms: _335  and  _336
REMARK  121  A    between atoms: _339  and  _341
REMARK  122  A    between atoms: _341  and  _342
REMARK  123  A    between atoms: _341  and  _344
REMARK  124  A    between atoms: _344  and  _345
REMARK  125  A    between atoms: _348  and  _350
REMARK  126  A    between atoms: _350  and  _351
REMARK  127  A    between atoms: _354  and  _356
REMARK  128  A    between atoms: _356  and  _357
REMARK  129  A    between atoms: _356  and  _359
REMARK  130  A    between atoms: _359  and  _360
REMARK  131  A    between atoms: _365  and  _366
REMARK  132  A    between atoms: _368  and  _370
REMARK  133  A    between atoms: _370  and  _371
REMARK  134  A    between atoms: _370  and  _373
REMARK  135  A    between atoms: _373  and  _374
REMARK  136  A    between atoms: _377  and  _379
REMARK  137  A    between atoms: _379  and  _380
REMARK  138  A    between atoms: _379  and  _382
REMARK  139  A    between atoms: _382  and  _383
REMARK  140  A    between atoms: _383  and  _384
REMARK  141  A    between atoms: _387  and  _389
REMARK  142  A    between atoms: _389  and  _390
REMARK  143  A    between atoms: _389  and  _392
REMARK  144  A    between atoms: _392  and  _393
REMARK  145  A    between atoms: _393  and  _394
REMARK  146  A    between atoms: _394  and  _395
REMARK  147  A    between atoms: _404  and  _406
REMARK  148  A    between atoms: _406  and  _407
REMARK  149  A    between atoms: _409  and  _411
REMARK  150  A    between atoms: _411  and  _412
REMARK  151  A    between atoms: _411  and  _414
REMARK  152  A    between atoms: _414  and  _415
REMARK  153  A    between atoms: _418  and  _420
REMARK  154  A    between atoms: _420  and  _421
REMARK                            x       y       z     vdW  Elec       q    Type
REMARK                         _______ _______ _______ _____ _____    ______ ____
ROOT
ATOM      1  O   HOH     1      24.928  74.156   9.222  0.00  0.00    +0.000 OA
ENDROOT
TORSDOF 0
REMARK  Name = ../refined-set-2016/3d50/3d50_pocket.pdb
REMARK  154 active torsions:
REMARK  status: ('A' for Active; 'I' for Inactive)
REMARK    1  A    between atoms: _1  and  _3
REMARK    2  A    between atoms: _14  and  _17
REMARK    3  A    between atoms: _17  and  _18
REMARK    4  A    between atoms: _25  and  _26
REMARK    5  A    between atoms: _33  and  _34
REMARK    6  A    between atoms: _39  and  _41
REMARK    7  A    between atoms: _41  and  _42
REMARK    8  A    between atoms: _44  and  _46
REMARK    9  A    between atoms: _46  and  _47
REMARK   10  A    between atoms: _46  and  _49
REMARK   11  A    between atoms: _49  and  _50
REMARK   12  A    between atoms: _60  and  _62
REMARK   13  A    between atoms: _62  and  _63
REMARK   14  A    between atoms: _62  and  _65
REMARK   15  A    between atoms: _65  and  _66
REMARK   16  A    between atoms: _69  and  _71
REMARK   17  A    between atoms: _71  and  _72
REMARK   18  A    between atoms: _71  and  _74
REMARK   19  A    between atoms: _74  and  _75
REMARK   20  A    between atoms: _80  and  _81
REMARK   21  A    between atoms: _83  and  _85
REMARK   22  A    between atoms: _85  and  _86
REMARK   23  A    between atoms: _85  and  _88
REMARK   24  A    between atoms: _88  and  _89
REMARK   25  A    between atoms: _89  and  _90
REMARK   26  A    between atoms: _92  and  _94
REMARK   27  A    between atoms: _94  and  _95
REMARK   28  A    between atoms: _94  and  _97
REMARK   29  A    between atoms: _97  and  _98
REMARK   30  A    between atoms: _101  and  _103
REMARK   31  A    between atoms: _103  and  _104
REMARK   32  A    between atoms: _103  and  _106
REMARK   33  A    between atoms: _106  and  _107
REMARK   34  A    between atoms: _107  and  _109
REMARK   35  A    between atoms: _109  and  ZN_423
REMARK   36  A    between atoms: _111  and  _112
REMARK   37  A    between atoms: _117  and  _119
REMARK   38  A    between atoms: _119  and  _120
REMARK   39  A    between atoms: _119  and  _122
REMARK   40  A    between atoms: _122  and  _123
REMARK   41  A    between atoms: _129  and  _131
REMARK   42  A    between atoms: _131  and  _132
REMARK   43  A    between atoms: _131  and  _134
REMARK   44  A    between atoms: _134  and  _135
REMARK   45  A    between atoms: _135  and  _136
REMARK   46  A    between atoms: _136  and  _137
REMARK   47  A    between atoms: _146  and  _148
REMARK   48  A    between atoms: _148  and  _149
REMARK   49  A    between atoms: _148  and  _151
REMARK   50  A    between atoms: _151  and  _152
REMARK   51  A    between atoms: _157  and  _158
REMARK   52  A    between atoms: _160  and  _162
REMARK   53  A    between atoms: _162  and  _163
REMARK   54  A    between atoms: _162  and  _165
REMARK   55  A    between atoms: _165  and  _166
REMARK   56  A    between atoms: _168  and  _170
REMARK   57  A    between atoms: _170  and  _171
REMARK   58  A    between atoms: _170  and  _173
REMARK   59  A    between atoms: _173  and  _174
REMARK   60  A    between atoms: _179  and  _180
REMARK   61  A    between atoms: _182  and  _184
REMARK   62  A    between atoms: _184  and  _185
REMARK   63  A    between atoms: _184  and  _187
REMARK   64  A    between atoms: _187  and  _188
REMARK   65  A    between atoms: _191  and  _193
REMARK   66  A    between atoms: _193  and  _194
REMARK   67  A    between atoms: _193  and  _196
REMARK   68  A    between atoms: _196  and  _197
REMARK   69  A    between atoms: _197  and  _198
REMARK   70  A    between atoms: _198  and  _199
REMARK   71  A    between atoms: _208  and  _210
REMARK   72  A    between atoms: _210  and  _211
REMARK   73  A    between atoms: _210  and  _213
REMARK   74  A    between atoms: _213  and  _214
REMARK   75  A    between atoms: _217  and  _219
REMARK   76  A    between atoms: _219  and  _220
REMARK   77  A    between atoms: _219  and  _222
REMARK   78  A    between atoms: _222  and  _223
REMARK   79  A    between atoms: _226  and  _228
REMARK   80  A    between atoms: _228  and  _229
REMARK   81  A    between atoms: _228  and  _231
REMARK   82  A    between atoms: _231  and  _232
REMARK   83  A    between atoms: _238  and  _240
REMARK   84  A    between atoms: _240  and  _241
REMARK   85  A    between atoms: _240  and  _243
REMARK   86  A    between atoms: _243  and  _244
REMARK   87  A    between atoms: _249  and  _250
REMARK   88  A    between atoms: _252  and  _254
REMARK   89  A    between atoms: _254  and  _255
REMARK   90  A    between atoms: _254  and  _257
REMARK   91  A    between atoms: _257  and  _258
REMARK   92  A    between atoms: _261  and  _263
REMARK   93  A    between atoms: _263  and  _264
REMARK   94  A    between atoms: _263  and  _266
REMARK   95  A    between atoms: _266  and  _267
REMARK   96  A    between atoms: _267  and  _268
REMARK   97  A    between atoms: _268  and  _269
REMARK   98  A    between atoms: _278  and  _280
REMARK   99  A    between atoms: _280  and  _281
REMARK  100  A    between atoms: _280  and  _283
REMARK  101  A    between atoms: _283  and  _284
REMARK  102  A    between atoms: _294  and  _296
REMARK  103  A    between atoms: _296  and  _297
REMARK  104  A    between atoms: _296  and  _299
REMARK  105  A    between atoms: _299  and  _300
REMARK  106  A    between atoms: _305  and  _307
REMARK  107  A    between atoms: _307  and  _308
REMARK  108  A    between atoms: _307  and  _310
REMARK  109  A    between atoms: _310  and  _311
REMARK  110  A    between atoms: _315  and  ZN_423
REMARK  111  A    between atoms: _316  and  _318
REMARK  112  A    between atoms: _318  and  _319
REMARK  113  A    between atoms: _318  and  _321
REMARK  114  A    between atoms: _321  and  _322
REMARK  115  A    between atoms: _325  and  _327
REMARK  116  A    between atoms: _327  and  _328
REMARK  117  A    between atoms: _330  and  _332
REMARK  118  A    between atoms: _332  and  _333
REMARK  119  A    between atoms: _332  and  _335
REMARK  120  A    between atoms: _335  and  _336
REMARK  121  A    between atoms: _339  and  _341
REMARK  122  A    between atoms: _341  and  _342
REMARK  123  A    between atoms: _341  and  _344
REMARK  124  A    between atoms: _344  and  _345
REMARK  125  A    between atoms: _348  and  _350
REMARK  126  A    between atoms: _350  and  _351
REMARK  127  A    between atoms: _354  and  _356
REMARK  128  A    between atoms: _356  and  _357
REMARK  129  A    between atoms: _356  and  _359
REMARK  130  A    between atoms: _359  and  _360
REMARK  131  A    between atoms: _365  and  _366
REMARK  132  A    between atoms: _368  and  _370
REMARK  133  A    between atoms: _370  and  _371
REMARK  134  A    between atoms: _370  and  _373
REMARK  135  A    between atoms: _373  and  _374
REMARK  136  A    between atoms: _377  and  _379
REMARK  137  A    between atoms: _379  and  _380
REMARK  138  A    between atoms: _379  and  _382
REMARK  139  A    between atoms: _382  and  _383
REMARK  140  A    between atoms: _383  and  _384
REMARK  141  A    between atoms: _387  and  _389
REMARK  142  A    between atoms: _389  and  _390
REMARK  143  A    between atoms: _389  and  _392
REMARK  144  A    between atoms: _392  and  _393
REMARK  145  A    between atoms: _393  and  _394
REMARK  146  A    between atoms: _394  and  _395
REMARK  147  A    between atoms: _404  and  _406
REMARK  148  A    between atoms: _406  and  _407
REMARK  149  A    between atoms: _409  and  _411
REMARK  150  A    between atoms: _411  and  _412
REMARK  151  A    between atoms: _411  and  _414
REMARK  152  A    between atoms: _414  and  _415
REMARK  153  A    between atoms: _418  and  _420
REMARK  154  A    between atoms: _420  and  _421
REMARK                            x       y       z     vdW  Elec       q    Type
REMARK                         _______ _______ _______ _____ _____    ______ ____
ROOT
ATOM      1  O   HOH     1      25.603  75.287  11.222  0.00  0.00    +0.000 OA
ENDROOT
TORSDOF 0
REMARK  Name = ../refined-set-2016/3d50/3d50_pocket.pdb
REMARK  154 active torsions:
REMARK  status: ('A' for Active; 'I' for Inactive)
REMARK    1  A    between atoms: _1  and  _3
REMARK    2  A    between atoms: _14  and  _17
REMARK    3  A    between atoms: _17  and  _18
REMARK    4  A    between atoms: _25  and  _26
REMARK    5  A    between atoms: _33  and  _34
REMARK    6  A    between atoms: _39  and  _41
REMARK    7  A    between atoms: _41  and  _42
REMARK    8  A    between atoms: _44  and  _46
REMARK    9  A    between atoms: _46  and  _47
REMARK   10  A    between atoms: _46  and  _49
REMARK   11  A    between atoms: _49  and  _50
REMARK   12  A    between atoms: _60  and  _62
REMARK   13  A    between atoms: _62  and  _63
REMARK   14  A    between atoms: _62  and  _65
REMARK   15  A    between atoms: _65  and  _66
REMARK   16  A    between atoms: _69  and  _71
REMARK   17  A    between atoms: _71  and  _72
REMARK   18  A    between atoms: _71  and  _74
REMARK   19  A    between atoms: _74  and  _75
REMARK   20  A    between atoms: _80  and  _81
REMARK   21  A    between atoms: _83  and  _85
REMARK   22  A    between atoms: _85  and  _86
REMARK   23  A    between atoms: _85  and  _88
REMARK   24  A    between atoms: _88  and  _89
REMARK   25  A    between atoms: _89  and  _90
REMARK   26  A    between atoms: _92  and  _94
REMARK   27  A    between atoms: _94  and  _95
REMARK   28  A    between atoms: _94  and  _97
REMARK   29  A    between atoms: _97  and  _98
REMARK   30  A    between atoms: _101  and  _103
REMARK   31  A    between atoms: _103  and  _104
REMARK   32  A    between atoms: _103  and  _106
REMARK   33  A    between atoms: _106  and  _107
REMARK   34  A    between atoms: _107  and  _109
REMARK   35  A    between atoms: _109  and  ZN_423
REMARK   36  A    between atoms: _111  and  _112
REMARK   37  A    between atoms: _117  and  _119
REMARK   38  A    between atoms: _119  and  _120
REMARK   39  A    between atoms: _119  and  _122
REMARK   40  A    between atoms: _122  and  _123
REMARK   41  A    between atoms: _129  and  _131
REMARK   42  A    between atoms: _131  and  _132
REMARK   43  A    between atoms: _131  and  _134
REMARK   44  A    between atoms: _134  and  _135
REMARK   45  A    between atoms: _135  and  _136
REMARK   46  A    between atoms: _136  and  _137
REMARK   47  A    between atoms: _146  and  _148
REMARK   48  A    between atoms: _148  and  _149
REMARK   49  A    between atoms: _148  and  _151
REMARK   50  A    between atoms: _151  and  _152
REMARK   51  A    between atoms: _157  and  _158
REMARK   52  A    between atoms: _160  and  _162
REMARK   53  A    between atoms: _162  and  _163
REMARK   54  A    between atoms: _162  and  _165
REMARK   55  A    between atoms: _165  and  _166
REMARK   56  A    between atoms: _168  and  _170
REMARK   57  A    between atoms: _170  and  _171
REMARK   58  A    between atoms: _170  and  _173
REMARK   59  A    between atoms: _173  and  _174
REMARK   60  A    between atoms: _179  and  _180
REMARK   61  A    between atoms: _182  and  _184
REMARK   62  A    between atoms: _184  and  _185
REMARK   63  A    between atoms: _184  and  _187
REMARK   64  A    between atoms: _187  and  _188
REMARK   65  A    between atoms: _191  and  _193
REMARK   66  A    between atoms: _193  and  _194
REMARK   67  A    between atoms: _193  and  _196
REMARK   68  A    between atoms: _196  and  _197
REMARK   69  A    between atoms: _197  and  _198
REMARK   70  A    between atoms: _198  and  _199
REMARK   71  A    between atoms: _208  and  _210
REMARK   72  A    between atoms: _210  and  _211
REMARK   73  A    between atoms: _210  and  _213
REMARK   74  A    between atoms: _213  and  _214
REMARK   75  A    between atoms: _217  and  _219
REMARK   76  A    between atoms: _219  and  _220
REMARK   77  A    between atoms: _219  and  _222
REMARK   78  A    between atoms: _222  and  _223
REMARK   79  A    between atoms: _226  and  _228
REMARK   80  A    between atoms: _228  and  _229
REMARK   81  A    between atoms: _228  and  _231
REMARK   82  A    between atoms: _231  and  _232
REMARK   83  A    between atoms: _238  and  _240
REMARK   84  A    between atoms: _240  and  _241
REMARK   85  A    between atoms: _240  and  _243
REMARK   86  A    between atoms: _243  and  _244
REMARK   87  A    between atoms: _249  and  _250
REMARK   88  A    between atoms: _252  and  _254
REMARK   89  A    between atoms: _254  and  _255
REMARK   90  A    between atoms: _254  and  _257
REMARK   91  A    between atoms: _257  and  _258
REMARK   92  A    between atoms: _261  and  _263
REMARK   93  A    between atoms: _263  and  _264
REMARK   94  A    between atoms: _263  and  _266
REMARK   95  A    between atoms: _266  and  _267
REMARK   96  A    between atoms: _267  and  _268
REMARK   97  A    between atoms: _268  and  _269
REMARK   98  A    between atoms: _278  and  _280
REMARK   99  A    between atoms: _280  and  _281
REMARK  100  A    between atoms: _280  and  _283
REMARK  101  A    between atoms: _283  and  _284
REMARK  102  A    between atoms: _294  and  _296
REMARK  103  A    between atoms: _296  and  _297
REMARK  104  A    between atoms: _296  and  _299
REMARK  105  A    between atoms: _299  and  _300
REMARK  106  A    between atoms: _305  and  _307
REMARK  107  A    between atoms: _307  and  _308
REMARK  108  A    between atoms: _307  and  _310
REMARK  109  A    between atoms: _310  and  _311
REMARK  110  A    between atoms: _315  and  ZN_423
REMARK  111  A    between atoms: _316  and  _318
REMARK  112  A    between atoms: _318  and  _319
REMARK  113  A    between atoms: _318  and  _321
REMARK  114  A    between atoms: _321  and  _322
REMARK  115  A    between atoms: _325  and  _327
REMARK  116  A    between atoms: _327  and  _328
REMARK  117  A    between atoms: _330  and  _332
REMARK  118  A    between atoms: _332  and  _333
REMARK  119  A    between atoms: _332  and  _335
REMARK  120  A    between atoms: _335  and  _336
REMARK  121  A    between atoms: _339  and  _341
REMARK  122  A    between atoms: _341  and  _342
REMARK  123  A    between atoms: _341  and  _344
REMARK  124  A    between atoms: _344  and  _345
REMARK  125  A    between atoms: _348  and  _350
REMARK  126  A    between atoms: _350  and  _351
REMARK  127  A    between atoms: _354  and  _356
REMARK  128  A    between atoms: _356  and  _357
REMARK  129  A    between atoms: _356  and  _359
REMARK  130  A    between atoms: _359  and  _360
REMARK  131  A    between atoms: _365  and  _366
REMARK  132  A    between atoms: _368  and  _370
REMARK  133  A    between atoms: _370  and  _371
REMARK  134  A    between atoms: _370  and  _373
REMARK  135  A    between atoms: _373  and  _374
REMARK  136  A    between atoms: _377  and  _379
REMARK  137  A    between atoms: _379  and  _380
REMARK  138  A    between atoms: _379  and  _382
REMARK  139  A    between atoms: _382  and  _383
REMARK  140  A    between atoms: _383  and  _384
REMARK  141  A    between atoms: _387  and  _389
REMARK  142  A    between atoms: _389  and  _390
REMARK  143  A    between atoms: _389  and  _392
REMARK  144  A    between atoms: _392  and  _393
REMARK  145  A    between atoms: _393  and  _394
REMARK  146  A    between atoms: _394  and  _395
REMARK  147  A    between atoms: _404  and  _406
REMARK  148  A    between atoms: _406  and  _407
REMARK  149  A    between atoms: _409  and  _411
REMARK  150  A    between atoms: _411  and  _412
REMARK  151  A    between atoms: _411  and  _414
REMARK  152  A    between atoms: _414  and  _415
REMARK  153  A    between atoms: _418  and  _420
REMARK  154  A    between atoms: _420  and  _421
REMARK                            x       y       z     vdW  Elec       q    Type
REMARK                         _______ _______ _______ _____ _____    ______ ____
ROOT
ATOM      1  O   HOH     1      25.943  73.079   5.933  0.00  0.00    +0.000 OA
ENDROOT
TORSDOF 0
REMARK  Name = ../refined-set-2016/3d50/3d50_pocket.pdb
REMARK  154 active torsions:
REMARK  status: ('A' for Active; 'I' for Inactive)
REMARK    1  A    between atoms: _1  and  _3
REMARK    2  A    between atoms: _14  and  _17
REMARK    3  A    between atoms: _17  and  _18
REMARK    4  A    between atoms: _25  and  _26
REMARK    5  A    between atoms: _33  and  _34
REMARK    6  A    between atoms: _39  and  _41
REMARK    7  A    between atoms: _41  and  _42
REMARK    8  A    between atoms: _44  and  _46
REMARK    9  A    between atoms: _46  and  _47
REMARK   10  A    between atoms: _46  and  _49
REMARK   11  A    between atoms: _49  and  _50
REMARK   12  A    between atoms: _60  and  _62
REMARK   13  A    between atoms: _62  and  _63
REMARK   14  A    between atoms: _62  and  _65
REMARK   15  A    between atoms: _65  and  _66
REMARK   16  A    between atoms: _69  and  _71
REMARK   17  A    between atoms: _71  and  _72
REMARK   18  A    between atoms: _71  and  _74
REMARK   19  A    between atoms: _74  and  _75
REMARK   20  A    between atoms: _80  and  _81
REMARK   21  A    between atoms: _83  and  _85
REMARK   22  A    between atoms: _85  and  _86
REMARK   23  A    between atoms: _85  and  _88
REMARK   24  A    between atoms: _88  and  _89
REMARK   25  A    between atoms: _89  and  _90
REMARK   26  A    between atoms: _92  and  _94
REMARK   27  A    between atoms: _94  and  _95
REMARK   28  A    between atoms: _94  and  _97
REMARK   29  A    between atoms: _97  and  _98
REMARK   30  A    between atoms: _101  and  _103
REMARK   31  A    between atoms: _103  and  _104
REMARK   32  A    between atoms: _103  and  _106
REMARK   33  A    between atoms: _106  and  _107
REMARK   34  A    between atoms: _107  and  _109
REMARK   35  A    between atoms: _109  and  ZN_423
REMARK   36  A    between atoms: _111  and  _112
REMARK   37  A    between atoms: _117  and  _119
REMARK   38  A    between atoms: _119  and  _120
REMARK   39  A    between atoms: _119  and  _122
REMARK   40  A    between atoms: _122  and  _123
REMARK   41  A    between atoms: _129  and  _131
REMARK   42  A    between atoms: _131  and  _132
REMARK   43  A    between atoms: _131  and  _134
REMARK   44  A    between atoms: _134  and  _135
REMARK   45  A    between atoms: _135  and  _136
REMARK   46  A    between atoms: _136  and  _137
REMARK   47  A    between atoms: _146  and  _148
REMARK   48  A    between atoms: _148  and  _149
REMARK   49  A    between atoms: _148  and  _151
REMARK   50  A    between atoms: _151  and  _152
REMARK   51  A    between atoms: _157  and  _158
REMARK   52  A    between atoms: _160  and  _162
REMARK   53  A    between atoms: _162  and  _163
REMARK   54  A    between atoms: _162  and  _165
REMARK   55  A    between atoms: _165  and  _166
REMARK   56  A    between atoms: _168  and  _170
REMARK   57  A    between atoms: _170  and  _171
REMARK   58  A    between atoms: _170  and  _173
REMARK   59  A    between atoms: _173  and  _174
REMARK   60  A    between atoms: _179  and  _180
REMARK   61  A    between atoms: _182  and  _184
REMARK   62  A    between atoms: _184  and  _185
REMARK   63  A    between atoms: _184  and  _187
REMARK   64  A    between atoms: _187  and  _188
REMARK   65  A    between atoms: _191  and  _193
REMARK   66  A    between atoms: _193  and  _194
REMARK   67  A    between atoms: _193  and  _196
REMARK   68  A    between atoms: _196  and  _197
REMARK   69  A    between atoms: _197  and  _198
REMARK   70  A    between atoms: _198  and  _199
REMARK   71  A    between atoms: _208  and  _210
REMARK   72  A    between atoms: _210  and  _211
REMARK   73  A    between atoms: _210  and  _213
REMARK   74  A    between atoms: _213  and  _214
REMARK   75  A    between atoms: _217  and  _219
REMARK   76  A    between atoms: _219  and  _220
REMARK   77  A    between atoms: _219  and  _222
REMARK   78  A    between atoms: _222  and  _223
REMARK   79  A    between atoms: _226  and  _228
REMARK   80  A    between atoms: _228  and  _229
REMARK   81  A    between atoms: _228  and  _231
REMARK   82  A    between atoms: _231  and  _232
REMARK   83  A    between atoms: _238  and  _240
REMARK   84  A    between atoms: _240  and  _241
REMARK   85  A    between atoms: _240  and  _243
REMARK   86  A    between atoms: _243  and  _244
REMARK   87  A    between atoms: _249  and  _250
REMARK   88  A    between atoms: _252  and  _254
REMARK   89  A    between atoms: _254  and  _255
REMARK   90  A    between atoms: _254  and  _257
REMARK   91  A    between atoms: _257  and  _258
REMARK   92  A    between atoms: _261  and  _263
REMARK   93  A    between atoms: _263  and  _264
REMARK   94  A    between atoms: _263  and  _266
REMARK   95  A    between atoms: _266  and  _267
REMARK   96  A    between atoms: _267  and  _268
REMARK   97  A    between atoms: _268  and  _269
REMARK   98  A    between atoms: _278  and  _280
REMARK   99  A    between atoms: _280  and  _281
REMARK  100  A    between atoms: _280  and  _283
REMARK  101  A    between atoms: _283  and  _284
REMARK  102  A    between atoms: _294  and  _296
REMARK  103  A    between atoms: _296  and  _297
REMARK  104  A    between atoms: _296  and  _299
REMARK  105  A    between atoms: _299  and  _300
REMARK  106  A    between atoms: _305  and  _307
REMARK  107  A    between atoms: _307  and  _308
REMARK  108  A    between atoms: _307  and  _310
REMARK  109  A    between atoms: _310  and  _311
REMARK  110  A    between atoms: _315  and  ZN_423
REMARK  111  A    between atoms: _316  and  _318
REMARK  112  A    between atoms: _318  and  _319
REMARK  113  A    between atoms: _318  and  _321
REMARK  114  A    between atoms: _321  and  _322
REMARK  115  A    between atoms: _325  and  _327
REMARK  116  A    between atoms: _327  and  _328
REMARK  117  A    between atoms: _330  and  _332
REMARK  118  A    between atoms: _332  and  _333
REMARK  119  A    between atoms: _332  and  _335
REMARK  120  A    between atoms: _335  and  _336
REMARK  121  A    between atoms: _339  and  _341
REMARK  122  A    between atoms: _341  and  _342
REMARK  123  A    between atoms: _341  and  _344
REMARK  124  A    between atoms: _344  and  _345
REMARK  125  A    between atoms: _348  and  _350
REMARK  126  A    between atoms: _350  and  _351
REMARK  127  A    between atoms: _354  and  _356
REMARK  128  A    between atoms: _356  and  _357
REMARK  129  A    between atoms: _356  and  _359
REMARK  130  A    between atoms: _359  and  _360
REMARK  131  A    between atoms: _365  and  _366
REMARK  132  A    between atoms: _368  and  _370
REMARK  133  A    between atoms: _370  and  _371
REMARK  134  A    between atoms: _370  and  _373
REMARK  135  A    between atoms: _373  and  _374
REMARK  136  A    between atoms: _377  and  _379
REMARK  137  A    between atoms: _379  and  _380
REMARK  138  A    between atoms: _379  and  _382
REMARK  139  A    between atoms: _382  and  _383
REMARK  140  A    between atoms: _383  and  _384
REMARK  141  A    between atoms: _387  and  _389
REMARK  142  A    between atoms: _389  and  _390
REMARK  143  A    between atoms: _389  and  _392
REMARK  144  A    between atoms: _392  and  _393
REMARK  145  A    between atoms: _393  and  _394
REMARK  146  A    between atoms: _394  and  _395
REMARK  147  A    between atoms: _404  and  _406
REMARK  148  A    between atoms: _406  and  _407
REMARK  149  A    between atoms: _409  and  _411
REMARK  150  A    between atoms: _411  and  _412
REMARK  151  A    between atoms: _411  and  _414
REMARK  152  A    between atoms: _414  and  _415
REMARK  153  A    between atoms: _418  and  _420
REMARK  154  A    between atoms: _420  and  _421
REMARK                            x       y       z     vdW  Elec       q    Type
REMARK                         _______ _______ _______ _____ _____    ______ ____
ROOT
ATOM      1  O   HOH     1      29.448  72.243  12.705  0.00  0.00    +0.000 OA
ENDROOT
TORSDOF 0
REMARK  Name = ../refined-set-2016/3d50/3d50_pocket.pdb
REMARK  154 active torsions:
REMARK  status: ('A' for Active; 'I' for Inactive)
REMARK    1  A    between atoms: _1  and  _3
REMARK    2  A    between atoms: _14  and  _17
REMARK    3  A    between atoms: _17  and  _18
REMARK    4  A    between atoms: _25  and  _26
REMARK    5  A    between atoms: _33  and  _34
REMARK    6  A    between atoms: _39  and  _41
REMARK    7  A    between atoms: _41  and  _42
REMARK    8  A    between atoms: _44  and  _46
REMARK    9  A    between atoms: _46  and  _47
REMARK   10  A    between atoms: _46  and  _49
REMARK   11  A    between atoms: _49  and  _50
REMARK   12  A    between atoms: _60  and  _62
REMARK   13  A    between atoms: _62  and  _63
REMARK   14  A    between atoms: _62  and  _65
REMARK   15  A    between atoms: _65  and  _66
REMARK   16  A    between atoms: _69  and  _71
REMARK   17  A    between atoms: _71  and  _72
REMARK   18  A    between atoms: _71  and  _74
REMARK   19  A    between atoms: _74  and  _75
REMARK   20  A    between atoms: _80  and  _81
REMARK   21  A    between atoms: _83  and  _85
REMARK   22  A    between atoms: _85  and  _86
REMARK   23  A    between atoms: _85  and  _88
REMARK   24  A    between atoms: _88  and  _89
REMARK   25  A    between atoms: _89  and  _90
REMARK   26  A    between atoms: _92  and  _94
REMARK   27  A    between atoms: _94  and  _95
REMARK   28  A    between atoms: _94  and  _97
REMARK   29  A    between atoms: _97  and  _98
REMARK   30  A    between atoms: _101  and  _103
REMARK   31  A    between atoms: _103  and  _104
REMARK   32  A    between atoms: _103  and  _106
REMARK   33  A    between atoms: _106  and  _107
REMARK   34  A    between atoms: _107  and  _109
REMARK   35  A    between atoms: _109  and  ZN_423
REMARK   36  A    between atoms: _111  and  _112
REMARK   37  A    between atoms: _117  and  _119
REMARK   38  A    between atoms: _119  and  _120
REMARK   39  A    between atoms: _119  and  _122
REMARK   40  A    between atoms: _122  and  _123
REMARK   41  A    between atoms: _129  and  _131
REMARK   42  A    between atoms: _131  and  _132
REMARK   43  A    between atoms: _131  and  _134
REMARK   44  A    between atoms: _134  and  _135
REMARK   45  A    between atoms: _135  and  _136
REMARK   46  A    between atoms: _136  and  _137
REMARK   47  A    between atoms: _146  and  _148
REMARK   48  A    between atoms: _148  and  _149
REMARK   49  A    between atoms: _148  and  _151
REMARK   50  A    between atoms: _151  and  _152
REMARK   51  A    between atoms: _157  and  _158
REMARK   52  A    between atoms: _160  and  _162
REMARK   53  A    between atoms: _162  and  _163
REMARK   54  A    between atoms: _162  and  _165
REMARK   55  A    between atoms: _165  and  _166
REMARK   56  A    between atoms: _168  and  _170
REMARK   57  A    between atoms: _170  and  _171
REMARK   58  A    between atoms: _170  and  _173
REMARK   59  A    between atoms: _173  and  _174
REMARK   60  A    between atoms: _179  and  _180
REMARK   61  A    between atoms: _182  and  _184
REMARK   62  A    between atoms: _184  and  _185
REMARK   63  A    between atoms: _184  and  _187
REMARK   64  A    between atoms: _187  and  _188
REMARK   65  A    between atoms: _191  and  _193
REMARK   66  A    between atoms: _193  and  _194
REMARK   67  A    between atoms: _193  and  _196
REMARK   68  A    between atoms: _196  and  _197
REMARK   69  A    between atoms: _197  and  _198
REMARK   70  A    between atoms: _198  and  _199
REMARK   71  A    between atoms: _208  and  _210
REMARK   72  A    between atoms: _210  and  _211
REMARK   73  A    between atoms: _210  and  _213
REMARK   74  A    between atoms: _213  and  _214
REMARK   75  A    between atoms: _217  and  _219
REMARK   76  A    between atoms: _219  and  _220
REMARK   77  A    between atoms: _219  and  _222
REMARK   78  A    between atoms: _222  and  _223
REMARK   79  A    between atoms: _226  and  _228
REMARK   80  A    between atoms: _228  and  _229
REMARK   81  A    between atoms: _228  and  _231
REMARK   82  A    between atoms: _231  and  _232
REMARK   83  A    between atoms: _238  and  _240
REMARK   84  A    between atoms: _240  and  _241
REMARK   85  A    between atoms: _240  and  _243
REMARK   86  A    between atoms: _243  and  _244
REMARK   87  A    between atoms: _249  and  _250
REMARK   88  A    between atoms: _252  and  _254
REMARK   89  A    between atoms: _254  and  _255
REMARK   90  A    between atoms: _254  and  _257
REMARK   91  A    between atoms: _257  and  _258
REMARK   92  A    between atoms: _261  and  _263
REMARK   93  A    between atoms: _263  and  _264
REMARK   94  A    between atoms: _263  and  _266
REMARK   95  A    between atoms: _266  and  _267
REMARK   96  A    between atoms: _267  and  _268
REMARK   97  A    between atoms: _268  and  _269
REMARK   98  A    between atoms: _278  and  _280
REMARK   99  A    between atoms: _280  and  _281
REMARK  100  A    between atoms: _280  and  _283
REMARK  101  A    between atoms: _283  and  _284
REMARK  102  A    between atoms: _294  and  _296
REMARK  103  A    between atoms: _296  and  _297
REMARK  104  A    between atoms: _296  and  _299
REMARK  105  A    between atoms: _299  and  _300
REMARK  106  A    between atoms: _305  and  _307
REMARK  107  A    between atoms: _307  and  _308
REMARK  108  A    between atoms: _307  and  _310
REMARK  109  A    between atoms: _310  and  _311
REMARK  110  A    between atoms: _315  and  ZN_423
REMARK  111  A    between atoms: _316  and  _318
REMARK  112  A    between atoms: _318  and  _319
REMARK  113  A    between atoms: _318  and  _321
REMARK  114  A    between atoms: _321  and  _322
REMARK  115  A    between atoms: _325  and  _327
REMARK  116  A    between atoms: _327  and  _328
REMARK  117  A    between atoms: _330  and  _332
REMARK  118  A    between atoms: _332  and  _333
REMARK  119  A    between atoms: _332  and  _335
REMARK  120  A    between atoms: _335  and  _336
REMARK  121  A    between atoms: _339  and  _341
REMARK  122  A    between atoms: _341  and  _342
REMARK  123  A    between atoms: _341  and  _344
REMARK  124  A    between atoms: _344  and  _345
REMARK  125  A    between atoms: _348  and  _350
REMARK  126  A    between atoms: _350  and  _351
REMARK  127  A    between atoms: _354  and  _356
REMARK  128  A    between atoms: _356  and  _357
REMARK  129  A    between atoms: _356  and  _359
REMARK  130  A    between atoms: _359  and  _360
REMARK  131  A    between atoms: _365  and  _366
REMARK  132  A    between atoms: _368  and  _370
REMARK  133  A    between atoms: _370  and  _371
REMARK  134  A    between atoms: _370  and  _373
REMARK  135  A    between atoms: _373  and  _374
REMARK  136  A    between atoms: _377  and  _379
REMARK  137  A    between atoms: _379  and  _380
REMARK  138  A    between atoms: _379  and  _382
REMARK  139  A    between atoms: _382  and  _383
REMARK  140  A    between atoms: _383  and  _384
REMARK  141  A    between atoms: _387  and  _389
REMARK  142  A    between atoms: _389  and  _390
REMARK  143  A    between atoms: _389  and  _392
REMARK  144  A    between atoms: _392  and  _393
REMARK  145  A    between atoms: _393  and  _394
REMARK  146  A    between atoms: _394  and  _395
REMARK  147  A    between atoms: _404  and  _406
REMARK  148  A    between atoms: _406  and  _407
REMARK  149  A    between atoms: _409  and  _411
REMARK  150  A    between atoms: _411  and  _412
REMARK  151  A    between atoms: _411  and  _414
REMARK  152  A    between atoms: _414  and  _415
REMARK  153  A    between atoms: _418  and  _420
REMARK  154  A    between atoms: _420  and  _421
REMARK                            x       y       z     vdW  Elec       q    Type
REMARK                         _______ _______ _______ _____ _____    ______ ____
ROOT
ATOM      1  O   HOH     1      31.562  71.336  14.144  0.00  0.00    +0.000 OA
ENDROOT
TORSDOF 0
REMARK  Name = ../refined-set-2016/3d50/3d50_pocket.pdb
REMARK  154 active torsions:
REMARK  status: ('A' for Active; 'I' for Inactive)
REMARK    1  A    between atoms: _1  and  _3
REMARK    2  A    between atoms: _14  and  _17
REMARK    3  A    between atoms: _17  and  _18
REMARK    4  A    between atoms: _25  and  _26
REMARK    5  A    between atoms: _33  and  _34
REMARK    6  A    between atoms: _39  and  _41
REMARK    7  A    between atoms: _41  and  _42
REMARK    8  A    between atoms: _44  and  _46
REMARK    9  A    between atoms: _46  and  _47
REMARK   10  A    between atoms: _46  and  _49
REMARK   11  A    between atoms: _49  and  _50
REMARK   12  A    between atoms: _60  and  _62
REMARK   13  A    between atoms: _62  and  _63
REMARK   14  A    between atoms: _62  and  _65
REMARK   15  A    between atoms: _65  and  _66
REMARK   16  A    between atoms: _69  and  _71
REMARK   17  A    between atoms: _71  and  _72
REMARK   18  A    between atoms: _71  and  _74
REMARK   19  A    between atoms: _74  and  _75
REMARK   20  A    between atoms: _80  and  _81
REMARK   21  A    between atoms: _83  and  _85
REMARK   22  A    between atoms: _85  and  _86
REMARK   23  A    between atoms: _85  and  _88
REMARK   24  A    between atoms: _88  and  _89
REMARK   25  A    between atoms: _89  and  _90
REMARK   26  A    between atoms: _92  and  _94
REMARK   27  A    between atoms: _94  and  _95
REMARK   28  A    between atoms: _94  and  _97
REMARK   29  A    between atoms: _97  and  _98
REMARK   30  A    between atoms: _101  and  _103
REMARK   31  A    between atoms: _103  and  _104
REMARK   32  A    between atoms: _103  and  _106
REMARK   33  A    between atoms: _106  and  _107
REMARK   34  A    between atoms: _107  and  _109
REMARK   35  A    between atoms: _109  and  ZN_423
REMARK   36  A    between atoms: _111  and  _112
REMARK   37  A    between atoms: _117  and  _119
REMARK   38  A    between atoms: _119  and  _120
REMARK   39  A    between atoms: _119  and  _122
REMARK   40  A    between atoms: _122  and  _123
REMARK   41  A    between atoms: _129  and  _131
REMARK   42  A    between atoms: _131  and  _132
REMARK   43  A    between atoms: _131  and  _134
REMARK   44  A    between atoms: _134  and  _135
REMARK   45  A    between atoms: _135  and  _136
REMARK   46  A    between atoms: _136  and  _137
REMARK   47  A    between atoms: _146  and  _148
REMARK   48  A    between atoms: _148  and  _149
REMARK   49  A    between atoms: _148  and  _151
REMARK   50  A    between atoms: _151  and  _152
REMARK   51  A    between atoms: _157  and  _158
REMARK   52  A    between atoms: _160  and  _162
REMARK   53  A    between atoms: _162  and  _163
REMARK   54  A    between atoms: _162  and  _165
REMARK   55  A    between atoms: _165  and  _166
REMARK   56  A    between atoms: _168  and  _170
REMARK   57  A    between atoms: _170  and  _171
REMARK   58  A    between atoms: _170  and  _173
REMARK   59  A    between atoms: _173  and  _174
REMARK   60  A    between atoms: _179  and  _180
REMARK   61  A    between atoms: _182  and  _184
REMARK   62  A    between atoms: _184  and  _185
REMARK   63  A    between atoms: _184  and  _187
REMARK   64  A    between atoms: _187  and  _188
REMARK   65  A    between atoms: _191  and  _193
REMARK   66  A    between atoms: _193  and  _194
REMARK   67  A    between atoms: _193  and  _196
REMARK   68  A    between atoms: _196  and  _197
REMARK   69  A    between atoms: _197  and  _198
REMARK   70  A    between atoms: _198  and  _199
REMARK   71  A    between atoms: _208  and  _210
REMARK   72  A    between atoms: _210  and  _211
REMARK   73  A    between atoms: _210  and  _213
REMARK   74  A    between atoms: _213  and  _214
REMARK   75  A    between atoms: _217  and  _219
REMARK   76  A    between atoms: _219  and  _220
REMARK   77  A    between atoms: _219  and  _222
REMARK   78  A    between atoms: _222  and  _223
REMARK   79  A    between atoms: _226  and  _228
REMARK   80  A    between atoms: _228  and  _229
REMARK   81  A    between atoms: _228  and  _231
REMARK   82  A    between atoms: _231  and  _232
REMARK   83  A    between atoms: _238  and  _240
REMARK   84  A    between atoms: _240  and  _241
REMARK   85  A    between atoms: _240  and  _243
REMARK   86  A    between atoms: _243  and  _244
REMARK   87  A    between atoms: _249  and  _250
REMARK   88  A    between atoms: _252  and  _254
REMARK   89  A    between atoms: _254  and  _255
REMARK   90  A    between atoms: _254  and  _257
REMARK   91  A    between atoms: _257  and  _258
REMARK   92  A    between atoms: _261  and  _263
REMARK   93  A    between atoms: _263  and  _264
REMARK   94  A    between atoms: _263  and  _266
REMARK   95  A    between atoms: _266  and  _267
REMARK   96  A    between atoms: _267  and  _268
REMARK   97  A    between atoms: _268  and  _269
REMARK   98  A    between atoms: _278  and  _280
REMARK   99  A    between atoms: _280  and  _281
REMARK  100  A    between atoms: _280  and  _283
REMARK  101  A    between atoms: _283  and  _284
REMARK  102  A    between atoms: _294  and  _296
REMARK  103  A    between atoms: _296  and  _297
REMARK  104  A    between atoms: _296  and  _299
REMARK  105  A    between atoms: _299  and  _300
REMARK  106  A    between atoms: _305  and  _307
REMARK  107  A    between atoms: _307  and  _308
REMARK  108  A    between atoms: _307  and  _310
REMARK  109  A    between atoms: _310  and  _311
REMARK  110  A    between atoms: _315  and  ZN_423
REMARK  111  A    between atoms: _316  and  _318
REMARK  112  A    between atoms: _318  and  _319
REMARK  113  A    between atoms: _318  and  _321
REMARK  114  A    between atoms: _321  and  _322
REMARK  115  A    between atoms: _325  and  _327
REMARK  116  A    between atoms: _327  and  _328
REMARK  117  A    between atoms: _330  and  _332
REMARK  118  A    between atoms: _332  and  _333
REMARK  119  A    between atoms: _332  and  _335
REMARK  120  A    between atoms: _335  and  _336
REMARK  121  A    between atoms: _339  and  _341
REMARK  122  A    between atoms: _341  and  _342
REMARK  123  A    between atoms: _341  and  _344
REMARK  124  A    between atoms: _344  and  _345
REMARK  125  A    between atoms: _348  and  _350
REMARK  126  A    between atoms: _350  and  _351
REMARK  127  A    between atoms: _354  and  _356
REMARK  128  A    between atoms: _356  and  _357
REMARK  129  A    between atoms: _356  and  _359
REMARK  130  A    between atoms: _359  and  _360
REMARK  131  A    between atoms: _365  and  _366
REMARK  132  A    between atoms: _368  and  _370
REMARK  133  A    between atoms: _370  and  _371
REMARK  134  A    between atoms: _370  and  _373
REMARK  135  A    between atoms: _373  and  _374
REMARK  136  A    between atoms: _377  and  _379
REMARK  137  A    between atoms: _379  and  _380
REMARK  138  A    between atoms: _379  and  _382
REMARK  139  A    between atoms: _382  and  _383
REMARK  140  A    between atoms: _383  and  _384
REMARK  141  A    between atoms: _387  and  _389
REMARK  142  A    between atoms: _389  and  _390
REMARK  143  A    between atoms: _389  and  _392
REMARK  144  A    between atoms: _392  and  _393
REMARK  145  A    between atoms: _393  and  _394
REMARK  146  A    between atoms: _394  and  _395
REMARK  147  A    between atoms: _404  and  _406
REMARK  148  A    between atoms: _406  and  _407
REMARK  149  A    between atoms: _409  and  _411
REMARK  150  A    between atoms: _411  and  _412
REMARK  151  A    between atoms: _411  and  _414
REMARK  152  A    between atoms: _414  and  _415
REMARK  153  A    between atoms: _418  and  _420
REMARK  154  A    between atoms: _420  and  _421
REMARK                            x       y       z     vdW  Elec       q    Type
REMARK                         _______ _______ _______ _____ _____    ______ ____
ROOT
ATOM      1  O   HOH     1      34.569  70.424  13.502  0.00  0.00    +0.000 OA
ENDROOT
TORSDOF 0
REMARK  Name = ../refined-set-2016/3d50/3d50_pocket.pdb
REMARK  154 active torsions:
REMARK  status: ('A' for Active; 'I' for Inactive)
REMARK    1  A    between atoms: _1  and  _3
REMARK    2  A    between atoms: _14  and  _17
REMARK    3  A    between atoms: _17  and  _18
REMARK    4  A    between atoms: _25  and  _26
REMARK    5  A    between atoms: _33  and  _34
REMARK    6  A    between atoms: _39  and  _41
REMARK    7  A    between atoms: _41  and  _42
REMARK    8  A    between atoms: _44  and  _46
REMARK    9  A    between atoms: _46  and  _47
REMARK   10  A    between atoms: _46  and  _49
REMARK   11  A    between atoms: _49  and  _50
REMARK   12  A    between atoms: _60  and  _62
REMARK   13  A    between atoms: _62  and  _63
REMARK   14  A    between atoms: _62  and  _65
REMARK   15  A    between atoms: _65  and  _66
REMARK   16  A    between atoms: _69  and  _71
REMARK   17  A    between atoms: _71  and  _72
REMARK   18  A    between atoms: _71  and  _74
REMARK   19  A    between atoms: _74  and  _75
REMARK   20  A    between atoms: _80  and  _81
REMARK   21  A    between atoms: _83  and  _85
REMARK   22  A    between atoms: _85  and  _86
REMARK   23  A    between atoms: _85  and  _88
REMARK   24  A    between atoms: _88  and  _89
REMARK   25  A    between atoms: _89  and  _90
REMARK   26  A    between atoms: _92  and  _94
REMARK   27  A    between atoms: _94  and  _95
REMARK   28  A    between atoms: _94  and  _97
REMARK   29  A    between atoms: _97  and  _98
REMARK   30  A    between atoms: _101  and  _103
REMARK   31  A    between atoms: _103  and  _104
REMARK   32  A    between atoms: _103  and  _106
REMARK   33  A    between atoms: _106  and  _107
REMARK   34  A    between atoms: _107  and  _109
REMARK   35  A    between atoms: _109  and  ZN_423
REMARK   36  A    between atoms: _111  and  _112
REMARK   37  A    between atoms: _117  and  _119
REMARK   38  A    between atoms: _119  and  _120
REMARK   39  A    between atoms: _119  and  _122
REMARK   40  A    between atoms: _122  and  _123
REMARK   41  A    between atoms: _129  and  _131
REMARK   42  A    between atoms: _131  and  _132
REMARK   43  A    between atoms: _131  and  _134
REMARK   44  A    between atoms: _134  and  _135
REMARK   45  A    between atoms: _135  and  _136
REMARK   46  A    between atoms: _136  and  _137
REMARK   47  A    between atoms: _146  and  _148
REMARK   48  A    between atoms: _148  and  _149
REMARK   49  A    between atoms: _148  and  _151
REMARK   50  A    between atoms: _151  and  _152
REMARK   51  A    between atoms: _157  and  _158
REMARK   52  A    between atoms: _160  and  _162
REMARK   53  A    between atoms: _162  and  _163
REMARK   54  A    between atoms: _162  and  _165
REMARK   55  A    between atoms: _165  and  _166
REMARK   56  A    between atoms: _168  and  _170
REMARK   57  A    between atoms: _170  and  _171
REMARK   58  A    between atoms: _170  and  _173
REMARK   59  A    between atoms: _173  and  _174
REMARK   60  A    between atoms: _179  and  _180
REMARK   61  A    between atoms: _182  and  _184
REMARK   62  A    between atoms: _184  and  _185
REMARK   63  A    between atoms: _184  and  _187
REMARK   64  A    between atoms: _187  and  _188
REMARK   65  A    between atoms: _191  and  _193
REMARK   66  A    between atoms: _193  and  _194
REMARK   67  A    between atoms: _193  and  _196
REMARK   68  A    between atoms: _196  and  _197
REMARK   69  A    between atoms: _197  and  _198
REMARK   70  A    between atoms: _198  and  _199
REMARK   71  A    between atoms: _208  and  _210
REMARK   72  A    between atoms: _210  and  _211
REMARK   73  A    between atoms: _210  and  _213
REMARK   74  A    between atoms: _213  and  _214
REMARK   75  A    between atoms: _217  and  _219
REMARK   76  A    between atoms: _219  and  _220
REMARK   77  A    between atoms: _219  and  _222
REMARK   78  A    between atoms: _222  and  _223
REMARK   79  A    between atoms: _226  and  _228
REMARK   80  A    between atoms: _228  and  _229
REMARK   81  A    between atoms: _228  and  _231
REMARK   82  A    between atoms: _231  and  _232
REMARK   83  A    between atoms: _238  and  _240
REMARK   84  A    between atoms: _240  and  _241
REMARK   85  A    between atoms: _240  and  _243
REMARK   86  A    between atoms: _243  and  _244
REMARK   87  A    between atoms: _249  and  _250
REMARK   88  A    between atoms: _252  and  _254
REMARK   89  A    between atoms: _254  and  _255
REMARK   90  A    between atoms: _254  and  _257
REMARK   91  A    between atoms: _257  and  _258
REMARK   92  A    between atoms: _261  and  _263
REMARK   93  A    between atoms: _263  and  _264
REMARK   94  A    between atoms: _263  and  _266
REMARK   95  A    between atoms: _266  and  _267
REMARK   96  A    between atoms: _267  and  _268
REMARK   97  A    between atoms: _268  and  _269
REMARK   98  A    between atoms: _278  and  _280
REMARK   99  A    between atoms: _280  and  _281
REMARK  100  A    between atoms: _280  and  _283
REMARK  101  A    between atoms: _283  and  _284
REMARK  102  A    between atoms: _294  and  _296
REMARK  103  A    between atoms: _296  and  _297
REMARK  104  A    between atoms: _296  and  _299
REMARK  105  A    between atoms: _299  and  _300
REMARK  106  A    between atoms: _305  and  _307
REMARK  107  A    between atoms: _307  and  _308
REMARK  108  A    between atoms: _307  and  _310
REMARK  109  A    between atoms: _310  and  _311
REMARK  110  A    between atoms: _315  and  ZN_423
REMARK  111  A    between atoms: _316  and  _318
REMARK  112  A    between atoms: _318  and  _319
REMARK  113  A    between atoms: _318  and  _321
REMARK  114  A    between atoms: _321  and  _322
REMARK  115  A    between atoms: _325  and  _327
REMARK  116  A    between atoms: _327  and  _328
REMARK  117  A    between atoms: _330  and  _332
REMARK  118  A    between atoms: _332  and  _333
REMARK  119  A    between atoms: _332  and  _335
REMARK  120  A    between atoms: _335  and  _336
REMARK  121  A    between atoms: _339  and  _341
REMARK  122  A    between atoms: _341  and  _342
REMARK  123  A    between atoms: _341  and  _344
REMARK  124  A    between atoms: _344  and  _345
REMARK  125  A    between atoms: _348  and  _350
REMARK  126  A    between atoms: _350  and  _351
REMARK  127  A    between atoms: _354  and  _356
REMARK  128  A    between atoms: _356  and  _357
REMARK  129  A    between atoms: _356  and  _359
REMARK  130  A    between atoms: _359  and  _360
REMARK  131  A    between atoms: _365  and  _366
REMARK  132  A    between atoms: _368  and  _370
REMARK  133  A    between atoms: _370  and  _371
REMARK  134  A    between atoms: _370  and  _373
REMARK  135  A    between atoms: _373  and  _374
REMARK  136  A    between atoms: _377  and  _379
REMARK  137  A    between atoms: _379  and  _380
REMARK  138  A    between atoms: _379  and  _382
REMARK  139  A    between atoms: _382  and  _383
REMARK  140  A    between atoms: _383  and  _384
REMARK  141  A    between atoms: _387  and  _389
REMARK  142  A    between atoms: _389  and  _390
REMARK  143  A    between atoms: _389  and  _392
REMARK  144  A    between atoms: _392  and  _393
REMARK  145  A    between atoms: _393  and  _394
REMARK  146  A    between atoms: _394  and  _395
REMARK  147  A    between atoms: _404  and  _406
REMARK  148  A    between atoms: _406  and  _407
REMARK  149  A    between atoms: _409  and  _411
REMARK  150  A    between atoms: _411  and  _412
REMARK  151  A    between atoms: _411  and  _414
REMARK  152  A    between atoms: _414  and  _415
REMARK  153  A    between atoms: _418  and  _420
REMARK  154  A    between atoms: _420  and  _421
REMARK                            x       y       z     vdW  Elec       q    Type
REMARK                         _______ _______ _______ _____ _____    ______ ____
ROOT
ATOM      1  O   HOH     1      34.157  67.913  12.612  0.00  0.00    +0.000 OA
ENDROOT
TORSDOF 0
