REMARK  Name = ../refined-set-2016/2bvd/2bvd_pocket.pdb
REMARK  144 active torsions:
REMARK  status: ('A' for Active; 'I' for Inactive)
REMARK    1  A    between atoms: _1  and  _3
REMARK    2  A    between atoms: _3  and  _4
REMARK    3  A    between atoms: _3  and  _6
REMARK    4  A    between atoms: _6  and  _7
REMARK    5  A    between atoms: _17  and  _19
REMARK    6  A    between atoms: _19  and  _20
REMARK    7  A    between atoms: _22  and  _24
REMARK    8  A    between atoms: _24  and  _25
REMARK    9  A    between atoms: _24  and  _27
REMARK   10  A    between atoms: _27  and  _28
REMARK   11  A    between atoms: _31  and  _33
REMARK   12  A    between atoms: _33  and  _34
REMARK   13  A    between atoms: _33  and  _36
REMARK   14  A    between atoms: _36  and  _37
REMARK   15  A    between atoms: _37  and  _38
REMARK   16  A    between atoms: _43  and  _45
REMARK   17  A    between atoms: _45  and  _46
REMARK   18  A    between atoms: _45  and  _48
REMARK   19  A    between atoms: _48  and  _49
REMARK   20  A    between atoms: _54  and  _56
REMARK   21  A    between atoms: _56  and  _57
REMARK   22  A    between atoms: _56  and  _59
REMARK   23  A    between atoms: _59  and  _60
REMARK   24  A    between atoms: _60  and  _61
REMARK   25  A    between atoms: _66  and  _68
REMARK   26  A    between atoms: _68  and  _69
REMARK   27  A    between atoms: _68  and  _71
REMARK   28  A    between atoms: _71  and  _72
REMARK   29  A    between atoms: _78  and  _80
REMARK   30  A    between atoms: _80  and  _81
REMARK   31  A    between atoms: _80  and  _83
REMARK   32  A    between atoms: _83  and  _84
REMARK   33  A    between atoms: _87  and  _89
REMARK   34  A    between atoms: _89  and  _90
REMARK   35  A    between atoms: _89  and  _92
REMARK   36  A    between atoms: _92  and  _93
REMARK   37  A    between atoms: _98  and  _100
REMARK   38  A    between atoms: _100  and  _101
REMARK   39  A    between atoms: _100  and  _103
REMARK   40  A    between atoms: _103  and  _104
REMARK   41  A    between atoms: _107  and  _109
REMARK   42  A    between atoms: _109  and  _110
REMARK   43  A    between atoms: _109  and  _112
REMARK   44  A    between atoms: _112  and  _113
REMARK   45  A    between atoms: _113  and  _114
REMARK   46  A    between atoms: _117  and  _119
REMARK   47  A    between atoms: _119  and  _120
REMARK   48  A    between atoms: _119  and  _122
REMARK   49  A    between atoms: _122  and  _123
REMARK   50  A    between atoms: _133  and  _135
REMARK   51  A    between atoms: _135  and  _136
REMARK   52  A    between atoms: _135  and  _138
REMARK   53  A    between atoms: _138  and  _139
REMARK   54  A    between atoms: _139  and  _140
REMARK   55  A    between atoms: _140  and  _141
REMARK   56  A    between atoms: _150  and  _152
REMARK   57  A    between atoms: _152  and  _153
REMARK   58  A    between atoms: _152  and  _155
REMARK   59  A    between atoms: _155  and  _156
REMARK   60  A    between atoms: _161  and  _163
REMARK   61  A    between atoms: _163  and  _164
REMARK   62  A    between atoms: _163  and  _166
REMARK   63  A    between atoms: _166  and  _167
REMARK   64  A    between atoms: _167  and  _168
REMARK   65  A    between atoms: _171  and  _173
REMARK   66  A    between atoms: _173  and  _174
REMARK   67  A    between atoms: _173  and  _176
REMARK   68  A    between atoms: _176  and  _177
REMARK   69  A    between atoms: _187  and  _189
REMARK   70  A    between atoms: _189  and  _190
REMARK   71  A    between atoms: _189  and  _192
REMARK   72  A    between atoms: _192  and  _193
REMARK   73  A    between atoms: _198  and  _199
REMARK   74  A    between atoms: _201  and  _203
REMARK   75  A    between atoms: _203  and  _204
REMARK   76  A    between atoms: _203  and  _206
REMARK   77  A    between atoms: _206  and  _207
REMARK   78  A    between atoms: _217  and  _219
REMARK   79  A    between atoms: _219  and  _220
REMARK   80  A    between atoms: _219  and  _222
REMARK   81  A    between atoms: _222  and  _223
REMARK   82  A    between atoms: _228  and  _230
REMARK   83  A    between atoms: _230  and  _231
REMARK   84  A    between atoms: _230  and  _233
REMARK   85  A    between atoms: _233  and  _234
REMARK   86  A    between atoms: _239  and  _241
REMARK   87  A    between atoms: _241  and  _242
REMARK   88  A    between atoms: _241  and  _244
REMARK   89  A    between atoms: _244  and  _245
REMARK   90  A    between atoms: _248  and  _250
REMARK   91  A    between atoms: _250  and  _251
REMARK   92  A    between atoms: _253  and  _255
REMARK   93  A    between atoms: _255  and  _256
REMARK   94  A    between atoms: _255  and  _258
REMARK   95  A    between atoms: _258  and  _259
REMARK   96  A    between atoms: _264  and  _265
REMARK   97  A    between atoms: _267  and  _269
REMARK   98  A    between atoms: _269  and  _270
REMARK   99  A    between atoms: _269  and  _272
REMARK  100  A    between atoms: _272  and  _273
REMARK  101  A    between atoms: _283  and  _285
REMARK  102  A    between atoms: _285  and  _286
REMARK  103  A    between atoms: _285  and  _288
REMARK  104  A    between atoms: _288  and  _289
REMARK  105  A    between atoms: _289  and  _290
REMARK  106  A    between atoms: _293  and  _295
REMARK  107  A    between atoms: _295  and  _296
REMARK  108  A    between atoms: _295  and  _298
REMARK  109  A    between atoms: _298  and  _299
REMARK  110  A    between atoms: _305  and  _307
REMARK  111  A    between atoms: _307  and  _308
REMARK  112  A    between atoms: _311  and  _313
REMARK  113  A    between atoms: _313  and  _314
REMARK  114  A    between atoms: _313  and  _316
REMARK  115  A    between atoms: _316  and  _317
REMARK  116  A    between atoms: _323  and  _325
REMARK  117  A    between atoms: _325  and  _326
REMARK  118  A    between atoms: _325  and  _328
REMARK  119  A    between atoms: _328  and  _329
REMARK  120  A    between atoms: _334  and  _336
REMARK  121  A    between atoms: _336  and  _337
REMARK  122  A    between atoms: _336  and  _339
REMARK  123  A    between atoms: _339  and  _340
REMARK  124  A    between atoms: _340  and  _341
REMARK  125  A    between atoms: _344  and  _346
REMARK  126  A    between atoms: _346  and  _347
REMARK  127  A    between atoms: _346  and  _349
REMARK  128  A    between atoms: _349  and  _350
REMARK  129  A    between atoms: _350  and  _351
REMARK  130  A    between atoms: _351  and  _352
REMARK  131  A    between atoms: _352  and  _353
REMARK  132  A    between atoms: _357  and  _359
REMARK  133  A    between atoms: _359  and  _360
REMARK  134  A    between atoms: _359  and  _362
REMARK  135  A    between atoms: _362  and  _363
REMARK  136  A    between atoms: _363  and  _364
REMARK  137  A    between atoms: _367  and  _369
REMARK  138  A    between atoms: _369  and  _370
REMARK  139  A    between atoms: _369  and  _372
REMARK  140  A    between atoms: _372  and  _373
REMARK  141  A    between atoms: _376  and  _378
REMARK  142  A    between atoms: _378  and  _379
REMARK  143  A    between atoms: _378  and  _381
REMARK  144  A    between atoms: _381  and  _382
REMARK                            x       y       z     vdW  Elec       q    Type
REMARK                         _______ _______ _______ _____ _____    ______ ____
ROOT
ATOM      1  CG  TRP A   1      22.352  26.085  15.854  0.00  0.00    -0.002 A 
ATOM      2  CD1 TRP A   1      21.397  26.413  16.780  0.00  0.00    +0.068 A 
ATOM      3  NE1 TRP A   1      21.993  26.863  17.934  0.00  0.00    -0.352 N 
ATOM      4  HE1 TRP A   1      21.493  27.167  18.794  0.00  0.00    +0.166 HD
ATOM      5  CE2 TRP A   1      23.356  26.846  17.768  0.00  0.00    +0.056 A 
ATOM      6  CZ2 TRP A   1      24.377  27.210  18.656  0.00  0.00    +0.017 A 
ATOM      7  CH2 TRP A   1      25.672  27.089  18.216  0.00  0.00    +0.001 A 
ATOM      8  CZ3 TRP A   1      25.967  26.620  16.918  0.00  0.00    +0.000 A 
ATOM      9  CE3 TRP A   1      24.947  26.257  16.036  0.00  0.00    +0.001 A 
ATOM     10  CD2 TRP A   1      23.618  26.362  16.465  0.00  0.00    +0.013 A 
ENDROOT
BRANCH   1  11
ATOM     11  CB  TRP A   1      22.118  25.573  14.451  0.00  0.00    +0.053 C 
BRANCH  11  12
ATOM     12  CA  TRP A   1      22.369  24.071  14.254  0.00  0.00    +0.137 C 
BRANCH  12  13
ATOM     13  N   TRP A   1      21.518  23.532  13.184  0.00  0.00    -0.239 NA
ATOM     14  H   TRP A   1      20.626  24.016  12.958  0.00  0.00    +0.142 HD
ENDBRANCH  12  13
BRANCH  12  15
ATOM     15  C   TRP A   1      21.977  23.305  15.512  0.00  0.00    +0.224 C 
ATOM     16  O   TRP A   1      20.828  23.397  15.954  0.00  0.00    -0.287 OA
ENDBRANCH  12  15
ENDBRANCH  11  12
ENDBRANCH   1  11
TORSDOF 4
REMARK  Name = ../refined-set-2016/2bvd/2bvd_pocket.pdb
REMARK  144 active torsions:
REMARK  status: ('A' for Active; 'I' for Inactive)
REMARK    1  A    between atoms: _1  and  _3
REMARK    2  A    between atoms: _3  and  _4
REMARK    3  A    between atoms: _3  and  _6
REMARK    4  A    between atoms: _6  and  _7
REMARK    5  A    between atoms: _17  and  _19
REMARK    6  A    between atoms: _19  and  _20
REMARK    7  A    between atoms: _22  and  _24
REMARK    8  A    between atoms: _24  and  _25
REMARK    9  A    between atoms: _24  and  _27
REMARK   10  A    between atoms: _27  and  _28
REMARK   11  A    between atoms: _31  and  _33
REMARK   12  A    between atoms: _33  and  _34
REMARK   13  A    between atoms: _33  and  _36
REMARK   14  A    between atoms: _36  and  _37
REMARK   15  A    between atoms: _37  and  _38
REMARK   16  A    between atoms: _43  and  _45
REMARK   17  A    between atoms: _45  and  _46
REMARK   18  A    between atoms: _45  and  _48
REMARK   19  A    between atoms: _48  and  _49
REMARK   20  A    between atoms: _54  and  _56
REMARK   21  A    between atoms: _56  and  _57
REMARK   22  A    between atoms: _56  and  _59
REMARK   23  A    between atoms: _59  and  _60
REMARK   24  A    between atoms: _60  and  _61
REMARK   25  A    between atoms: _66  and  _68
REMARK   26  A    between atoms: _68  and  _69
REMARK   27  A    between atoms: _68  and  _71
REMARK   28  A    between atoms: _71  and  _72
REMARK   29  A    between atoms: _78  and  _80
REMARK   30  A    between atoms: _80  and  _81
REMARK   31  A    between atoms: _80  and  _83
REMARK   32  A    between atoms: _83  and  _84
REMARK   33  A    between atoms: _87  and  _89
REMARK   34  A    between atoms: _89  and  _90
REMARK   35  A    between atoms: _89  and  _92
REMARK   36  A    between atoms: _92  and  _93
REMARK   37  A    between atoms: _98  and  _100
REMARK   38  A    between atoms: _100  and  _101
REMARK   39  A    between atoms: _100  and  _103
REMARK   40  A    between atoms: _103  and  _104
REMARK   41  A    between atoms: _107  and  _109
REMARK   42  A    between atoms: _109  and  _110
REMARK   43  A    between atoms: _109  and  _112
REMARK   44  A    between atoms: _112  and  _113
REMARK   45  A    between atoms: _113  and  _114
REMARK   46  A    between atoms: _117  and  _119
REMARK   47  A    between atoms: _119  and  _120
REMARK   48  A    between atoms: _119  and  _122
REMARK   49  A    between atoms: _122  and  _123
REMARK   50  A    between atoms: _133  and  _135
REMARK   51  A    between atoms: _135  and  _136
REMARK   52  A    between atoms: _135  and  _138
REMARK   53  A    between atoms: _138  and  _139
REMARK   54  A    between atoms: _139  and  _140
REMARK   55  A    between atoms: _140  and  _141
REMARK   56  A    between atoms: _150  and  _152
REMARK   57  A    between atoms: _152  and  _153
REMARK   58  A    between atoms: _152  and  _155
REMARK   59  A    between atoms: _155  and  _156
REMARK   60  A    between atoms: _161  and  _163
REMARK   61  A    between atoms: _163  and  _164
REMARK   62  A    between atoms: _163  and  _166
REMARK   63  A    between atoms: _166  and  _167
REMARK   64  A    between atoms: _167  and  _168
REMARK   65  A    between atoms: _171  and  _173
REMARK   66  A    between atoms: _173  and  _174
REMARK   67  A    between atoms: _173  and  _176
REMARK   68  A    between atoms: _176  and  _177
REMARK   69  A    between atoms: _187  and  _189
REMARK   70  A    between atoms: _189  and  _190
REMARK   71  A    between atoms: _189  and  _192
REMARK   72  A    between atoms: _192  and  _193
REMARK   73  A    between atoms: _198  and  _199
REMARK   74  A    between atoms: _201  and  _203
REMARK   75  A    between atoms: _203  and  _204
REMARK   76  A    between atoms: _203  and  _206
REMARK   77  A    between atoms: _206  and  _207
REMARK   78  A    between atoms: _217  and  _219
REMARK   79  A    between atoms: _219  and  _220
REMARK   80  A    between atoms: _219  and  _222
REMARK   81  A    between atoms: _222  and  _223
REMARK   82  A    between atoms: _228  and  _230
REMARK   83  A    between atoms: _230  and  _231
REMARK   84  A    between atoms: _230  and  _233
REMARK   85  A    between atoms: _233  and  _234
REMARK   86  A    between atoms: _239  and  _241
REMARK   87  A    between atoms: _241  and  _242
REMARK   88  A    between atoms: _241  and  _244
REMARK   89  A    between atoms: _244  and  _245
REMARK   90  A    between atoms: _248  and  _250
REMARK   91  A    between atoms: _250  and  _251
REMARK   92  A    between atoms: _253  and  _255
REMARK   93  A    between atoms: _255  and  _256
REMARK   94  A    between atoms: _255  and  _258
REMARK   95  A    between atoms: _258  and  _259
REMARK   96  A    between atoms: _264  and  _265
REMARK   97  A    between atoms: _267  and  _269
REMARK   98  A    between atoms: _269  and  _270
REMARK   99  A    between atoms: _269  and  _272
REMARK  100  A    between atoms: _272  and  _273
REMARK  101  A    between atoms: _283  and  _285
REMARK  102  A    between atoms: _285  and  _286
REMARK  103  A    between atoms: _285  and  _288
REMARK  104  A    between atoms: _288  and  _289
REMARK  105  A    between atoms: _289  and  _290
REMARK  106  A    between atoms: _293  and  _295
REMARK  107  A    between atoms: _295  and  _296
REMARK  108  A    between atoms: _295  and  _298
REMARK  109  A    between atoms: _298  and  _299
REMARK  110  A    between atoms: _305  and  _307
REMARK  111  A    between atoms: _307  and  _308
REMARK  112  A    between atoms: _311  and  _313
REMARK  113  A    between atoms: _313  and  _314
REMARK  114  A    between atoms: _313  and  _316
REMARK  115  A    between atoms: _316  and  _317
REMARK  116  A    between atoms: _323  and  _325
REMARK  117  A    between atoms: _325  and  _326
REMARK  118  A    between atoms: _325  and  _328
REMARK  119  A    between atoms: _328  and  _329
REMARK  120  A    between atoms: _334  and  _336
REMARK  121  A    between atoms: _336  and  _337
REMARK  122  A    between atoms: _336  and  _339
REMARK  123  A    between atoms: _339  and  _340
REMARK  124  A    between atoms: _340  and  _341
REMARK  125  A    between atoms: _344  and  _346
REMARK  126  A    between atoms: _346  and  _347
REMARK  127  A    between atoms: _346  and  _349
REMARK  128  A    between atoms: _349  and  _350
REMARK  129  A    between atoms: _350  and  _351
REMARK  130  A    between atoms: _351  and  _352
REMARK  131  A    between atoms: _352  and  _353
REMARK  132  A    between atoms: _357  and  _359
REMARK  133  A    between atoms: _359  and  _360
REMARK  134  A    between atoms: _359  and  _362
REMARK  135  A    between atoms: _362  and  _363
REMARK  136  A    between atoms: _363  and  _364
REMARK  137  A    between atoms: _367  and  _369
REMARK  138  A    between atoms: _369  and  _370
REMARK  139  A    between atoms: _369  and  _372
REMARK  140  A    between atoms: _372  and  _373
REMARK  141  A    between atoms: _376  and  _378
REMARK  142  A    between atoms: _378  and  _379
REMARK  143  A    between atoms: _378  and  _381
REMARK  144  A    between atoms: _381  and  _382
REMARK                            x       y       z     vdW  Elec       q    Type
REMARK                         _______ _______ _______ _____ _____    ______ ____
ROOT
ATOM      1  C   THR A   2      27.074  24.130  19.425  0.00  0.00    +0.243 C 
ATOM      2  N   GLN A   3      28.314  24.584  19.587  0.00  0.00    -0.298 N 
ATOM      3  H   GLN A   3      28.600  25.009  20.492  0.00  0.00    +0.150 HD
ATOM      4  O   THR A   2      26.680  23.657  18.354  0.00  0.00    -0.273 OA
ENDROOT
BRANCH   1   5
ATOM      5  CA  THR A   2      26.132  24.226  20.611  0.00  0.00    +0.176 C 
BRANCH   5   8
ATOM      6  C   GLY A   1      23.690  24.447  20.701  0.00  0.00    +0.240 C 
ATOM      7  O   GLY A   1      23.692  25.009  21.797  0.00  0.00    -0.274 OA
ATOM      8  N   THR A   2      24.786  24.011  20.094  0.00  0.00    -0.295 N 
ATOM      9  H   THR A   2      24.679  23.488  19.202  0.00  0.00    +0.150 HD
BRANCH   6  10
ATOM     10  CA  GLY A   1      22.398  24.197  19.956  0.00  0.00    +0.169 C 
BRANCH  10  11
ATOM     11  N   GLY A   1      22.575  23.499  18.678  0.00  0.00    -0.236 NA
ATOM     12  H   GLY A   1      22.750  24.062  17.821  0.00  0.00    +0.142 HD
ENDBRANCH  10  11
ENDBRANCH   6  10
ENDBRANCH   5   8
BRANCH   5  13
ATOM     13  CB  THR A   2      26.503  23.195  21.720  0.00  0.00    +0.137 C 
ATOM     14  CG2 THR A   2      26.640  21.794  21.151  0.00  0.00    +0.034 C 
BRANCH  13  15
ATOM     15  OG1 THR A   2      27.734  23.587  22.351  0.00  0.00    -0.382 OA
ATOM     16  HG1 THR A   2      27.624  24.483  22.758  0.00  0.00    +0.210 HD
ENDBRANCH  13  15
ENDBRANCH   5  13
ENDBRANCH   1   5
BRANCH   2  17
ATOM     17  CA  GLN A   3      29.269  24.483  18.492  0.00  0.00    +0.137 C 
BRANCH  17  18
ATOM     18  C   GLN A   3      29.440  22.998  18.129  0.00  0.00    +0.227 C 
ATOM     19  O   GLN A   3      29.435  22.147  19.017  0.00  0.00    -0.286 OA
ENDBRANCH  17  18
BRANCH  17  20
ATOM     20  CB  GLN A   3      30.586  25.191  18.845  0.00  0.00    +0.037 C 
BRANCH  20  21
ATOM     21  CG  GLN A   3      30.455  26.721  18.952  0.00  0.00    +0.087 C 
BRANCH  21  22
ATOM     22  CD  GLN A   3      30.089  27.416  17.634  0.00  0.00    +0.219 C 
ATOM     23  NE2 GLN A   3      29.615  28.660  17.743  0.00  0.00    -0.329 N 
ATOM     24 HE21 GLN A   3      29.497  29.091  18.682  0.00  0.00    +0.145 HD
ATOM     25 HE22 GLN A   3      29.364  29.198  16.889  0.00  0.00    +0.145 HD
ATOM     26  OE1 GLN A   3      30.248  26.858  16.538  0.00  0.00    -0.275 OA
ENDBRANCH  21  22
ENDBRANCH  20  21
ENDBRANCH  17  20
ENDBRANCH   2  17
TORSDOF 11
REMARK  Name = ../refined-set-2016/2bvd/2bvd_pocket.pdb
REMARK  144 active torsions:
REMARK  status: ('A' for Active; 'I' for Inactive)
REMARK    1  A    between atoms: _1  and  _3
REMARK    2  A    between atoms: _3  and  _4
REMARK    3  A    between atoms: _3  and  _6
REMARK    4  A    between atoms: _6  and  _7
REMARK    5  A    between atoms: _17  and  _19
REMARK    6  A    between atoms: _19  and  _20
REMARK    7  A    between atoms: _22  and  _24
REMARK    8  A    between atoms: _24  and  _25
REMARK    9  A    between atoms: _24  and  _27
REMARK   10  A    between atoms: _27  and  _28
REMARK   11  A    between atoms: _31  and  _33
REMARK   12  A    between atoms: _33  and  _34
REMARK   13  A    between atoms: _33  and  _36
REMARK   14  A    between atoms: _36  and  _37
REMARK   15  A    between atoms: _37  and  _38
REMARK   16  A    between atoms: _43  and  _45
REMARK   17  A    between atoms: _45  and  _46
REMARK   18  A    between atoms: _45  and  _48
REMARK   19  A    between atoms: _48  and  _49
REMARK   20  A    between atoms: _54  and  _56
REMARK   21  A    between atoms: _56  and  _57
REMARK   22  A    between atoms: _56  and  _59
REMARK   23  A    between atoms: _59  and  _60
REMARK   24  A    between atoms: _60  and  _61
REMARK   25  A    between atoms: _66  and  _68
REMARK   26  A    between atoms: _68  and  _69
REMARK   27  A    between atoms: _68  and  _71
REMARK   28  A    between atoms: _71  and  _72
REMARK   29  A    between atoms: _78  and  _80
REMARK   30  A    between atoms: _80  and  _81
REMARK   31  A    between atoms: _80  and  _83
REMARK   32  A    between atoms: _83  and  _84
REMARK   33  A    between atoms: _87  and  _89
REMARK   34  A    between atoms: _89  and  _90
REMARK   35  A    between atoms: _89  and  _92
REMARK   36  A    between atoms: _92  and  _93
REMARK   37  A    between atoms: _98  and  _100
REMARK   38  A    between atoms: _100  and  _101
REMARK   39  A    between atoms: _100  and  _103
REMARK   40  A    between atoms: _103  and  _104
REMARK   41  A    between atoms: _107  and  _109
REMARK   42  A    between atoms: _109  and  _110
REMARK   43  A    between atoms: _109  and  _112
REMARK   44  A    between atoms: _112  and  _113
REMARK   45  A    between atoms: _113  and  _114
REMARK   46  A    between atoms: _117  and  _119
REMARK   47  A    between atoms: _119  and  _120
REMARK   48  A    between atoms: _119  and  _122
REMARK   49  A    between atoms: _122  and  _123
REMARK   50  A    between atoms: _133  and  _135
REMARK   51  A    between atoms: _135  and  _136
REMARK   52  A    between atoms: _135  and  _138
REMARK   53  A    between atoms: _138  and  _139
REMARK   54  A    between atoms: _139  and  _140
REMARK   55  A    between atoms: _140  and  _141
REMARK   56  A    between atoms: _150  and  _152
REMARK   57  A    between atoms: _152  and  _153
REMARK   58  A    between atoms: _152  and  _155
REMARK   59  A    between atoms: _155  and  _156
REMARK   60  A    between atoms: _161  and  _163
REMARK   61  A    between atoms: _163  and  _164
REMARK   62  A    between atoms: _163  and  _166
REMARK   63  A    between atoms: _166  and  _167
REMARK   64  A    between atoms: _167  and  _168
REMARK   65  A    between atoms: _171  and  _173
REMARK   66  A    between atoms: _173  and  _174
REMARK   67  A    between atoms: _173  and  _176
REMARK   68  A    between atoms: _176  and  _177
REMARK   69  A    between atoms: _187  and  _189
REMARK   70  A    between atoms: _189  and  _190
REMARK   71  A    between atoms: _189  and  _192
REMARK   72  A    between atoms: _192  and  _193
REMARK   73  A    between atoms: _198  and  _199
REMARK   74  A    between atoms: _201  and  _203
REMARK   75  A    between atoms: _203  and  _204
REMARK   76  A    between atoms: _203  and  _206
REMARK   77  A    between atoms: _206  and  _207
REMARK   78  A    between atoms: _217  and  _219
REMARK   79  A    between atoms: _219  and  _220
REMARK   80  A    between atoms: _219  and  _222
REMARK   81  A    between atoms: _222  and  _223
REMARK   82  A    between atoms: _228  and  _230
REMARK   83  A    between atoms: _230  and  _231
REMARK   84  A    between atoms: _230  and  _233
REMARK   85  A    between atoms: _233  and  _234
REMARK   86  A    between atoms: _239  and  _241
REMARK   87  A    between atoms: _241  and  _242
REMARK   88  A    between atoms: _241  and  _244
REMARK   89  A    between atoms: _244  and  _245
REMARK   90  A    between atoms: _248  and  _250
REMARK   91  A    between atoms: _250  and  _251
REMARK   92  A    between atoms: _253  and  _255
REMARK   93  A    between atoms: _255  and  _256
REMARK   94  A    between atoms: _255  and  _258
REMARK   95  A    between atoms: _258  and  _259
REMARK   96  A    between atoms: _264  and  _265
REMARK   97  A    between atoms: _267  and  _269
REMARK   98  A    between atoms: _269  and  _270
REMARK   99  A    between atoms: _269  and  _272
REMARK  100  A    between atoms: _272  and  _273
REMARK  101  A    between atoms: _283  and  _285
REMARK  102  A    between atoms: _285  and  _286
REMARK  103  A    between atoms: _285  and  _288
REMARK  104  A    between atoms: _288  and  _289
REMARK  105  A    between atoms: _289  and  _290
REMARK  106  A    between atoms: _293  and  _295
REMARK  107  A    between atoms: _295  and  _296
REMARK  108  A    between atoms: _295  and  _298
REMARK  109  A    between atoms: _298  and  _299
REMARK  110  A    between atoms: _305  and  _307
REMARK  111  A    between atoms: _307  and  _308
REMARK  112  A    between atoms: _311  and  _313
REMARK  113  A    between atoms: _313  and  _314
REMARK  114  A    between atoms: _313  and  _316
REMARK  115  A    between atoms: _316  and  _317
REMARK  116  A    between atoms: _323  and  _325
REMARK  117  A    between atoms: _325  and  _326
REMARK  118  A    between atoms: _325  and  _328
REMARK  119  A    between atoms: _328  and  _329
REMARK  120  A    between atoms: _334  and  _336
REMARK  121  A    between atoms: _336  and  _337
REMARK  122  A    between atoms: _336  and  _339
REMARK  123  A    between atoms: _339  and  _340
REMARK  124  A    between atoms: _340  and  _341
REMARK  125  A    between atoms: _344  and  _346
REMARK  126  A    between atoms: _346  and  _347
REMARK  127  A    between atoms: _346  and  _349
REMARK  128  A    between atoms: _349  and  _350
REMARK  129  A    between atoms: _350  and  _351
REMARK  130  A    between atoms: _351  and  _352
REMARK  131  A    between atoms: _352  and  _353
REMARK  132  A    between atoms: _357  and  _359
REMARK  133  A    between atoms: _359  and  _360
REMARK  134  A    between atoms: _359  and  _362
REMARK  135  A    between atoms: _362  and  _363
REMARK  136  A    between atoms: _363  and  _364
REMARK  137  A    between atoms: _367  and  _369
REMARK  138  A    between atoms: _369  and  _370
REMARK  139  A    between atoms: _369  and  _372
REMARK  140  A    between atoms: _372  and  _373
REMARK  141  A    between atoms: _376  and  _378
REMARK  142  A    between atoms: _378  and  _379
REMARK  143  A    between atoms: _378  and  _381
REMARK  144  A    between atoms: _381  and  _382
REMARK                            x       y       z     vdW  Elec       q    Type
REMARK                         _______ _______ _______ _____ _____    ______ ____
ROOT
ATOM      1  CA  PHE A   3      27.568  30.604  13.953  0.00  0.00    +0.153 C 
ENDROOT
BRANCH   1   2
ATOM      2  C   PHE A   3      28.929  31.014  14.479  0.00  0.00    +0.241 C 
ATOM      3  O   PHE A   3      29.394  30.492  15.487  0.00  0.00    -0.273 OA
ATOM      4  N   ILE A   4      29.564  31.949  13.787  0.00  0.00    -0.297 N 
ATOM      5  H   ILE A   4      29.182  32.251  12.868  0.00  0.00    +0.150 HD
BRANCH   4   6
ATOM      6  CA  ILE A   4      30.789  32.563  14.289  0.00  0.00    +0.149 C 
BRANCH   6   7
ATOM      7  C   ILE A   4      30.742  34.067  14.047  0.00  0.00    +0.241 C 
ATOM      8  N   ASN A   5      31.606  34.799  14.746  0.00  0.00    -0.298 N 
ATOM      9  H   ASN A   5      32.230  34.333  15.436  0.00  0.00    +0.150 HD
ATOM     10  O   ILE A   4      29.926  34.549  13.251  0.00  0.00    -0.273 OA
BRANCH   8  11
ATOM     11  CA  ASN A   5      31.694  36.240  14.563  0.00  0.00    +0.146 C 
BRANCH  11  12
ATOM     12  C   ASN A   5      32.891  36.627  13.694  0.00  0.00    +0.227 C 
ATOM     13  O   ASN A   5      33.559  35.752  13.116  0.00  0.00    -0.286 OA
ENDBRANCH  11  12
BRANCH  11  14
ATOM     14  CB  ASN A   5      31.732  36.945  15.925  0.00  0.00    +0.112 C 
BRANCH  14  15
ATOM     15  CG  ASN A   5      32.949  36.558  16.748  0.00  0.00    +0.222 C 
ATOM     16  ND2 ASN A   5      32.781  36.505  18.062  0.00  0.00    -0.329 N 
ATOM     17 HD21 ASN A   5      33.582  36.260  18.679  0.00  0.00    +0.145 HD
ATOM     18 HD22 ASN A   5      31.849  36.708  18.476  0.00  0.00    +0.145 HD
ATOM     19  OD1 ASN A   5      34.029  36.327  16.212  0.00  0.00    -0.275 OA
ENDBRANCH  14  15
ENDBRANCH  11  14
ENDBRANCH   8  11
ENDBRANCH   6   7
BRANCH   6  20
ATOM     20  CB  ILE A   4      32.065  31.949  13.659  0.00  0.00    +0.027 C 
ATOM     21  CG2 ILE A   4      32.090  30.410  13.825  0.00  0.00    +0.002 C 
BRANCH  20  22
ATOM     22  CG1 ILE A   4      32.221  32.388  12.201  0.00  0.00    +0.002 C 
ATOM     23  CD1 ILE A   4      33.562  32.007  11.569  0.00  0.00    +0.000 C 
ENDBRANCH  20  22
ENDBRANCH   6  20
ENDBRANCH   4   6
ENDBRANCH   1   2
BRANCH   1  25
ATOM     24  C   GLN A   2      27.548  28.410  12.873  0.00  0.00    +0.241 C 
ATOM     25  N   PHE A   3      27.446  29.144  13.980  0.00  0.00    -0.297 N 
ATOM     26  H   PHE A   3      27.275  28.668  14.889  0.00  0.00    +0.150 HD
ATOM     27  O   GLN A   2      27.635  28.896  11.747  0.00  0.00    -0.273 OA
BRANCH  24  28
ATOM     28  CA  GLN A   2      27.523  26.894  13.062  0.00  0.00    +0.149 C 
BRANCH  28  31
ATOM     29  C   HIS A   1      26.001  25.245  12.136  0.00  0.00    +0.239 C 
ATOM     30  O   HIS A   1      25.754  24.793  13.251  0.00  0.00    -0.274 OA
ATOM     31  N   GLN A   2      26.864  26.241  11.936  0.00  0.00    -0.297 N 
ATOM     32  H   GLN A   2      27.070  26.556  10.967  0.00  0.00    +0.150 HD
BRANCH  29  33
ATOM     33  CA  HIS A   1      25.317  24.687  10.900  0.00  0.00    +0.151 C 
BRANCH  33  34
ATOM     34  N   HIS A   1      25.316  23.224  10.891  0.00  0.00    -0.238 NA
ATOM     35  H   HIS A   1      24.692  22.718  11.552  0.00  0.00    +0.142 HD
ENDBRANCH  33  34
BRANCH  33  36
ATOM     36  CB  HIS A   1      23.866  25.177  10.847  0.00  0.00    +0.074 C 
BRANCH  36  37
ATOM     37  CG  HIS A   1      23.717  26.664  10.711  0.00  0.00    +0.082 A 
ATOM     38  ND1 HIS A   1      22.519  27.301  10.962  0.00  0.00    -0.227 NA
ATOM     39  CE1 HIS A   1      22.656  28.597  10.735  0.00  0.00    +0.199 A 
ATOM     40  NE2 HIS A   1      23.899  28.825  10.350  0.00  0.00    -0.221 NA
ATOM     41  CD2 HIS A   1      24.588  27.633  10.331  0.00  0.00    +0.115 A 
ENDBRANCH  36  37
ENDBRANCH  33  36
ENDBRANCH  29  33
ENDBRANCH  28  31
BRANCH  28  42
ATOM     42  CB  GLN A   2      28.932  26.335  13.263  0.00  0.00    +0.039 C 
BRANCH  42  43
ATOM     43  CG  GLN A   2      30.005  27.036  12.495  0.00  0.00    +0.087 C 
BRANCH  43  44
ATOM     44  CD  GLN A   2      31.408  26.522  12.800  0.00  0.00    +0.219 C 
ATOM     45  NE2 GLN A   2      31.728  26.338  14.079  0.00  0.00    -0.329 N 
ATOM     46 HE21 GLN A   2      31.028  26.532  14.823  0.00  0.00    +0.145 HD
ATOM     47 HE22 GLN A   2      32.678  26.000  14.334  0.00  0.00    +0.145 HD
ATOM     48  OE1 GLN A   2      32.191  26.310  11.884  0.00  0.00    -0.275 OA
ENDBRANCH  43  44
ENDBRANCH  42  43
ENDBRANCH  28  42
ENDBRANCH  24  28
ENDBRANCH   1  25
BRANCH   1  49
ATOM     49  CB  PHE A   3      26.496  31.261  14.828  0.00  0.00    +0.055 C 
BRANCH  49  50
ATOM     50  CG  PHE A   3      25.083  30.990  14.378  0.00  0.00    -0.020 A 
ATOM     51  CD2 PHE A   3      24.462  29.777  14.693  0.00  0.00    -0.004 A 
ATOM     52  CE2 PHE A   3      23.156  29.514  14.284  0.00  0.00    -0.000 A 
ATOM     53  CZ  PHE A   3      22.453  30.478  13.563  0.00  0.00    -0.000 A 
ATOM     54  CE1 PHE A   3      23.064  31.691  13.247  0.00  0.00    -0.000 A 
ATOM     55  CD1 PHE A   3      24.374  31.942  13.656  0.00  0.00    -0.004 A 
ENDBRANCH  49  50
ENDBRANCH   1  49
TORSDOF 21
REMARK  Name = ../refined-set-2016/2bvd/2bvd_pocket.pdb
REMARK  144 active torsions:
REMARK  status: ('A' for Active; 'I' for Inactive)
REMARK    1  A    between atoms: _1  and  _3
REMARK    2  A    between atoms: _3  and  _4
REMARK    3  A    between atoms: _3  and  _6
REMARK    4  A    between atoms: _6  and  _7
REMARK    5  A    between atoms: _17  and  _19
REMARK    6  A    between atoms: _19  and  _20
REMARK    7  A    between atoms: _22  and  _24
REMARK    8  A    between atoms: _24  and  _25
REMARK    9  A    between atoms: _24  and  _27
REMARK   10  A    between atoms: _27  and  _28
REMARK   11  A    between atoms: _31  and  _33
REMARK   12  A    between atoms: _33  and  _34
REMARK   13  A    between atoms: _33  and  _36
REMARK   14  A    between atoms: _36  and  _37
REMARK   15  A    between atoms: _37  and  _38
REMARK   16  A    between atoms: _43  and  _45
REMARK   17  A    between atoms: _45  and  _46
REMARK   18  A    between atoms: _45  and  _48
REMARK   19  A    between atoms: _48  and  _49
REMARK   20  A    between atoms: _54  and  _56
REMARK   21  A    between atoms: _56  and  _57
REMARK   22  A    between atoms: _56  and  _59
REMARK   23  A    between atoms: _59  and  _60
REMARK   24  A    between atoms: _60  and  _61
REMARK   25  A    between atoms: _66  and  _68
REMARK   26  A    between atoms: _68  and  _69
REMARK   27  A    between atoms: _68  and  _71
REMARK   28  A    between atoms: _71  and  _72
REMARK   29  A    between atoms: _78  and  _80
REMARK   30  A    between atoms: _80  and  _81
REMARK   31  A    between atoms: _80  and  _83
REMARK   32  A    between atoms: _83  and  _84
REMARK   33  A    between atoms: _87  and  _89
REMARK   34  A    between atoms: _89  and  _90
REMARK   35  A    between atoms: _89  and  _92
REMARK   36  A    between atoms: _92  and  _93
REMARK   37  A    between atoms: _98  and  _100
REMARK   38  A    between atoms: _100  and  _101
REMARK   39  A    between atoms: _100  and  _103
REMARK   40  A    between atoms: _103  and  _104
REMARK   41  A    between atoms: _107  and  _109
REMARK   42  A    between atoms: _109  and  _110
REMARK   43  A    between atoms: _109  and  _112
REMARK   44  A    between atoms: _112  and  _113
REMARK   45  A    between atoms: _113  and  _114
REMARK   46  A    between atoms: _117  and  _119
REMARK   47  A    between atoms: _119  and  _120
REMARK   48  A    between atoms: _119  and  _122
REMARK   49  A    between atoms: _122  and  _123
REMARK   50  A    between atoms: _133  and  _135
REMARK   51  A    between atoms: _135  and  _136
REMARK   52  A    between atoms: _135  and  _138
REMARK   53  A    between atoms: _138  and  _139
REMARK   54  A    between atoms: _139  and  _140
REMARK   55  A    between atoms: _140  and  _141
REMARK   56  A    between atoms: _150  and  _152
REMARK   57  A    between atoms: _152  and  _153
REMARK   58  A    between atoms: _152  and  _155
REMARK   59  A    between atoms: _155  and  _156
REMARK   60  A    between atoms: _161  and  _163
REMARK   61  A    between atoms: _163  and  _164
REMARK   62  A    between atoms: _163  and  _166
REMARK   63  A    between atoms: _166  and  _167
REMARK   64  A    between atoms: _167  and  _168
REMARK   65  A    between atoms: _171  and  _173
REMARK   66  A    between atoms: _173  and  _174
REMARK   67  A    between atoms: _173  and  _176
REMARK   68  A    between atoms: _176  and  _177
REMARK   69  A    between atoms: _187  and  _189
REMARK   70  A    between atoms: _189  and  _190
REMARK   71  A    between atoms: _189  and  _192
REMARK   72  A    between atoms: _192  and  _193
REMARK   73  A    between atoms: _198  and  _199
REMARK   74  A    between atoms: _201  and  _203
REMARK   75  A    between atoms: _203  and  _204
REMARK   76  A    between atoms: _203  and  _206
REMARK   77  A    between atoms: _206  and  _207
REMARK   78  A    between atoms: _217  and  _219
REMARK   79  A    between atoms: _219  and  _220
REMARK   80  A    between atoms: _219  and  _222
REMARK   81  A    between atoms: _222  and  _223
REMARK   82  A    between atoms: _228  and  _230
REMARK   83  A    between atoms: _230  and  _231
REMARK   84  A    between atoms: _230  and  _233
REMARK   85  A    between atoms: _233  and  _234
REMARK   86  A    between atoms: _239  and  _241
REMARK   87  A    between atoms: _241  and  _242
REMARK   88  A    between atoms: _241  and  _244
REMARK   89  A    between atoms: _244  and  _245
REMARK   90  A    between atoms: _248  and  _250
REMARK   91  A    between atoms: _250  and  _251
REMARK   92  A    between atoms: _253  and  _255
REMARK   93  A    between atoms: _255  and  _256
REMARK   94  A    between atoms: _255  and  _258
REMARK   95  A    between atoms: _258  and  _259
REMARK   96  A    between atoms: _264  and  _265
REMARK   97  A    between atoms: _267  and  _269
REMARK   98  A    between atoms: _269  and  _270
REMARK   99  A    between atoms: _269  and  _272
REMARK  100  A    between atoms: _272  and  _273
REMARK  101  A    between atoms: _283  and  _285
REMARK  102  A    between atoms: _285  and  _286
REMARK  103  A    between atoms: _285  and  _288
REMARK  104  A    between atoms: _288  and  _289
REMARK  105  A    between atoms: _289  and  _290
REMARK  106  A    between atoms: _293  and  _295
REMARK  107  A    between atoms: _295  and  _296
REMARK  108  A    between atoms: _295  and  _298
REMARK  109  A    between atoms: _298  and  _299
REMARK  110  A    between atoms: _305  and  _307
REMARK  111  A    between atoms: _307  and  _308
REMARK  112  A    between atoms: _311  and  _313
REMARK  113  A    between atoms: _313  and  _314
REMARK  114  A    between atoms: _313  and  _316
REMARK  115  A    between atoms: _316  and  _317
REMARK  116  A    between atoms: _323  and  _325
REMARK  117  A    between atoms: _325  and  _326
REMARK  118  A    between atoms: _325  and  _328
REMARK  119  A    between atoms: _328  and  _329
REMARK  120  A    between atoms: _334  and  _336
REMARK  121  A    between atoms: _336  and  _337
REMARK  122  A    between atoms: _336  and  _339
REMARK  123  A    between atoms: _339  and  _340
REMARK  124  A    between atoms: _340  and  _341
REMARK  125  A    between atoms: _344  and  _346
REMARK  126  A    between atoms: _346  and  _347
REMARK  127  A    between atoms: _346  and  _349
REMARK  128  A    between atoms: _349  and  _350
REMARK  129  A    between atoms: _350  and  _351
REMARK  130  A    between atoms: _351  and  _352
REMARK  131  A    between atoms: _352  and  _353
REMARK  132  A    between atoms: _357  and  _359
REMARK  133  A    between atoms: _359  and  _360
REMARK  134  A    between atoms: _359  and  _362
REMARK  135  A    between atoms: _362  and  _363
REMARK  136  A    between atoms: _363  and  _364
REMARK  137  A    between atoms: _367  and  _369
REMARK  138  A    between atoms: _369  and  _370
REMARK  139  A    between atoms: _369  and  _372
REMARK  140  A    between atoms: _372  and  _373
REMARK  141  A    between atoms: _376  and  _378
REMARK  142  A    between atoms: _378  and  _379
REMARK  143  A    between atoms: _378  and  _381
REMARK  144  A    between atoms: _381  and  _382
REMARK                            x       y       z     vdW  Elec       q    Type
REMARK                         _______ _______ _______ _____ _____    ______ ____
ROOT
ATOM      1  CA  THR A   1      26.759  31.921   9.540  0.00  0.00    +0.160 C 
ENDROOT
BRANCH   1   2
ATOM      2  N   THR A   1      27.330  30.581   9.484  0.00  0.00    -0.237 NA
ATOM      3  H   THR A   1      27.153  29.923  10.270  0.00  0.00    +0.142 HD
ENDBRANCH   1   2
BRANCH   1   4
ATOM      4  CB  THR A   1      25.434  31.921  10.304  0.00  0.00    +0.134 C 
ATOM      5  CG2 THR A   1      24.910  33.350  10.456  0.00  0.00    +0.034 C 
BRANCH   4   6
ATOM      6  OG1 THR A   1      24.500  31.143   9.545  0.00  0.00    -0.383 OA
ATOM      7  HG1 THR A   1      24.844  30.220   9.447  0.00  0.00    +0.210 HD
ENDBRANCH   4   6
ENDBRANCH   1   4
BRANCH   1   8
ATOM      8  C   THR A   1      27.800  32.828  10.170  0.00  0.00    +0.227 C 
ATOM      9  O   THR A   1      28.184  32.648  11.325  0.00  0.00    -0.287 OA
ENDBRANCH   1   8
TORSDOF 4
REMARK  Name = ../refined-set-2016/2bvd/2bvd_pocket.pdb
REMARK  144 active torsions:
REMARK  status: ('A' for Active; 'I' for Inactive)
REMARK    1  A    between atoms: _1  and  _3
REMARK    2  A    between atoms: _3  and  _4
REMARK    3  A    between atoms: _3  and  _6
REMARK    4  A    between atoms: _6  and  _7
REMARK    5  A    between atoms: _17  and  _19
REMARK    6  A    between atoms: _19  and  _20
REMARK    7  A    between atoms: _22  and  _24
REMARK    8  A    between atoms: _24  and  _25
REMARK    9  A    between atoms: _24  and  _27
REMARK   10  A    between atoms: _27  and  _28
REMARK   11  A    between atoms: _31  and  _33
REMARK   12  A    between atoms: _33  and  _34
REMARK   13  A    between atoms: _33  and  _36
REMARK   14  A    between atoms: _36  and  _37
REMARK   15  A    between atoms: _37  and  _38
REMARK   16  A    between atoms: _43  and  _45
REMARK   17  A    between atoms: _45  and  _46
REMARK   18  A    between atoms: _45  and  _48
REMARK   19  A    between atoms: _48  and  _49
REMARK   20  A    between atoms: _54  and  _56
REMARK   21  A    between atoms: _56  and  _57
REMARK   22  A    between atoms: _56  and  _59
REMARK   23  A    between atoms: _59  and  _60
REMARK   24  A    between atoms: _60  and  _61
REMARK   25  A    between atoms: _66  and  _68
REMARK   26  A    between atoms: _68  and  _69
REMARK   27  A    between atoms: _68  and  _71
REMARK   28  A    between atoms: _71  and  _72
REMARK   29  A    between atoms: _78  and  _80
REMARK   30  A    between atoms: _80  and  _81
REMARK   31  A    between atoms: _80  and  _83
REMARK   32  A    between atoms: _83  and  _84
REMARK   33  A    between atoms: _87  and  _89
REMARK   34  A    between atoms: _89  and  _90
REMARK   35  A    between atoms: _89  and  _92
REMARK   36  A    between atoms: _92  and  _93
REMARK   37  A    between atoms: _98  and  _100
REMARK   38  A    between atoms: _100  and  _101
REMARK   39  A    between atoms: _100  and  _103
REMARK   40  A    between atoms: _103  and  _104
REMARK   41  A    between atoms: _107  and  _109
REMARK   42  A    between atoms: _109  and  _110
REMARK   43  A    between atoms: _109  and  _112
REMARK   44  A    between atoms: _112  and  _113
REMARK   45  A    between atoms: _113  and  _114
REMARK   46  A    between atoms: _117  and  _119
REMARK   47  A    between atoms: _119  and  _120
REMARK   48  A    between atoms: _119  and  _122
REMARK   49  A    between atoms: _122  and  _123
REMARK   50  A    between atoms: _133  and  _135
REMARK   51  A    between atoms: _135  and  _136
REMARK   52  A    between atoms: _135  and  _138
REMARK   53  A    between atoms: _138  and  _139
REMARK   54  A    between atoms: _139  and  _140
REMARK   55  A    between atoms: _140  and  _141
REMARK   56  A    between atoms: _150  and  _152
REMARK   57  A    between atoms: _152  and  _153
REMARK   58  A    between atoms: _152  and  _155
REMARK   59  A    between atoms: _155  and  _156
REMARK   60  A    between atoms: _161  and  _163
REMARK   61  A    between atoms: _163  and  _164
REMARK   62  A    between atoms: _163  and  _166
REMARK   63  A    between atoms: _166  and  _167
REMARK   64  A    between atoms: _167  and  _168
REMARK   65  A    between atoms: _171  and  _173
REMARK   66  A    between atoms: _173  and  _174
REMARK   67  A    between atoms: _173  and  _176
REMARK   68  A    between atoms: _176  and  _177
REMARK   69  A    between atoms: _187  and  _189
REMARK   70  A    between atoms: _189  and  _190
REMARK   71  A    between atoms: _189  and  _192
REMARK   72  A    between atoms: _192  and  _193
REMARK   73  A    between atoms: _198  and  _199
REMARK   74  A    between atoms: _201  and  _203
REMARK   75  A    between atoms: _203  and  _204
REMARK   76  A    between atoms: _203  and  _206
REMARK   77  A    between atoms: _206  and  _207
REMARK   78  A    between atoms: _217  and  _219
REMARK   79  A    between atoms: _219  and  _220
REMARK   80  A    between atoms: _219  and  _222
REMARK   81  A    between atoms: _222  and  _223
REMARK   82  A    between atoms: _228  and  _230
REMARK   83  A    between atoms: _230  and  _231
REMARK   84  A    between atoms: _230  and  _233
REMARK   85  A    between atoms: _233  and  _234
REMARK   86  A    between atoms: _239  and  _241
REMARK   87  A    between atoms: _241  and  _242
REMARK   88  A    between atoms: _241  and  _244
REMARK   89  A    between atoms: _244  and  _245
REMARK   90  A    between atoms: _248  and  _250
REMARK   91  A    between atoms: _250  and  _251
REMARK   92  A    between atoms: _253  and  _255
REMARK   93  A    between atoms: _255  and  _256
REMARK   94  A    between atoms: _255  and  _258
REMARK   95  A    between atoms: _258  and  _259
REMARK   96  A    between atoms: _264  and  _265
REMARK   97  A    between atoms: _267  and  _269
REMARK   98  A    between atoms: _269  and  _270
REMARK   99  A    between atoms: _269  and  _272
REMARK  100  A    between atoms: _272  and  _273
REMARK  101  A    between atoms: _283  and  _285
REMARK  102  A    between atoms: _285  and  _286
REMARK  103  A    between atoms: _285  and  _288
REMARK  104  A    between atoms: _288  and  _289
REMARK  105  A    between atoms: _289  and  _290
REMARK  106  A    between atoms: _293  and  _295
REMARK  107  A    between atoms: _295  and  _296
REMARK  108  A    between atoms: _295  and  _298
REMARK  109  A    between atoms: _298  and  _299
REMARK  110  A    between atoms: _305  and  _307
REMARK  111  A    between atoms: _307  and  _308
REMARK  112  A    between atoms: _311  and  _313
REMARK  113  A    between atoms: _313  and  _314
REMARK  114  A    between atoms: _313  and  _316
REMARK  115  A    between atoms: _316  and  _317
REMARK  116  A    between atoms: _323  and  _325
REMARK  117  A    between atoms: _325  and  _326
REMARK  118  A    between atoms: _325  and  _328
REMARK  119  A    between atoms: _328  and  _329
REMARK  120  A    between atoms: _334  and  _336
REMARK  121  A    between atoms: _336  and  _337
REMARK  122  A    between atoms: _336  and  _339
REMARK  123  A    between atoms: _339  and  _340
REMARK  124  A    between atoms: _340  and  _341
REMARK  125  A    between atoms: _344  and  _346
REMARK  126  A    between atoms: _346  and  _347
REMARK  127  A    between atoms: _346  and  _349
REMARK  128  A    between atoms: _349  and  _350
REMARK  129  A    between atoms: _350  and  _351
REMARK  130  A    between atoms: _351  and  _352
REMARK  131  A    between atoms: _352  and  _353
REMARK  132  A    between atoms: _357  and  _359
REMARK  133  A    between atoms: _359  and  _360
REMARK  134  A    between atoms: _359  and  _362
REMARK  135  A    between atoms: _362  and  _363
REMARK  136  A    between atoms: _363  and  _364
REMARK  137  A    between atoms: _367  and  _369
REMARK  138  A    between atoms: _369  and  _370
REMARK  139  A    between atoms: _369  and  _372
REMARK  140  A    between atoms: _372  and  _373
REMARK  141  A    between atoms: _376  and  _378
REMARK  142  A    between atoms: _378  and  _379
REMARK  143  A    between atoms: _378  and  _381
REMARK  144  A    between atoms: _381  and  _382
REMARK                            x       y       z     vdW  Elec       q    Type
REMARK                         _______ _______ _______ _____ _____    ______ ____
ROOT
ATOM      1  CA  GLU A   1      28.243  37.430  11.888  0.00  0.00    +0.134 C 
ENDROOT
BRANCH   1   2
ATOM      2  N   GLU A   1      28.948  36.272  11.321  0.00  0.00    -0.239 NA
ATOM      3  H   GLU A   1      29.430  35.622  11.974  0.00  0.00    +0.142 HD
ENDBRANCH   1   2
BRANCH   1   4
ATOM      4  C   GLU A   1      29.178  38.579  12.223  0.00  0.00    +0.224 C 
ATOM      5  O   GLU A   1      29.908  38.499  13.210  0.00  0.00    -0.287 OA
ENDBRANCH   1   4
BRANCH   1   6
ATOM      6  CB  GLU A   1      27.518  37.024  13.177  0.00  0.00    +0.037 C 
BRANCH   6   7
ATOM      7  CG  GLU A   1      26.524  35.893  13.013  0.00  0.00    +0.116 C 
BRANCH   7   8
ATOM      8  CD  GLU A   1      25.702  35.691  14.270  0.00  0.00    +0.365 C 
ATOM      9  OE2 GLU A   1      26.288  35.738  15.376  0.00  0.00    -0.246 OA
ATOM     10  OE1 GLU A   1      24.481  35.465  14.157  0.00  0.00    -0.246 OA
ENDBRANCH   7   8
ENDBRANCH   6   7
ENDBRANCH   1   6
TORSDOF 5
REMARK  Name = ../refined-set-2016/2bvd/2bvd_pocket.pdb
REMARK  144 active torsions:
REMARK  status: ('A' for Active; 'I' for Inactive)
REMARK    1  A    between atoms: _1  and  _3
REMARK    2  A    between atoms: _3  and  _4
REMARK    3  A    between atoms: _3  and  _6
REMARK    4  A    between atoms: _6  and  _7
REMARK    5  A    between atoms: _17  and  _19
REMARK    6  A    between atoms: _19  and  _20
REMARK    7  A    between atoms: _22  and  _24
REMARK    8  A    between atoms: _24  and  _25
REMARK    9  A    between atoms: _24  and  _27
REMARK   10  A    between atoms: _27  and  _28
REMARK   11  A    between atoms: _31  and  _33
REMARK   12  A    between atoms: _33  and  _34
REMARK   13  A    between atoms: _33  and  _36
REMARK   14  A    between atoms: _36  and  _37
REMARK   15  A    between atoms: _37  and  _38
REMARK   16  A    between atoms: _43  and  _45
REMARK   17  A    between atoms: _45  and  _46
REMARK   18  A    between atoms: _45  and  _48
REMARK   19  A    between atoms: _48  and  _49
REMARK   20  A    between atoms: _54  and  _56
REMARK   21  A    between atoms: _56  and  _57
REMARK   22  A    between atoms: _56  and  _59
REMARK   23  A    between atoms: _59  and  _60
REMARK   24  A    between atoms: _60  and  _61
REMARK   25  A    between atoms: _66  and  _68
REMARK   26  A    between atoms: _68  and  _69
REMARK   27  A    between atoms: _68  and  _71
REMARK   28  A    between atoms: _71  and  _72
REMARK   29  A    between atoms: _78  and  _80
REMARK   30  A    between atoms: _80  and  _81
REMARK   31  A    between atoms: _80  and  _83
REMARK   32  A    between atoms: _83  and  _84
REMARK   33  A    between atoms: _87  and  _89
REMARK   34  A    between atoms: _89  and  _90
REMARK   35  A    between atoms: _89  and  _92
REMARK   36  A    between atoms: _92  and  _93
REMARK   37  A    between atoms: _98  and  _100
REMARK   38  A    between atoms: _100  and  _101
REMARK   39  A    between atoms: _100  and  _103
REMARK   40  A    between atoms: _103  and  _104
REMARK   41  A    between atoms: _107  and  _109
REMARK   42  A    between atoms: _109  and  _110
REMARK   43  A    between atoms: _109  and  _112
REMARK   44  A    between atoms: _112  and  _113
REMARK   45  A    between atoms: _113  and  _114
REMARK   46  A    between atoms: _117  and  _119
REMARK   47  A    between atoms: _119  and  _120
REMARK   48  A    between atoms: _119  and  _122
REMARK   49  A    between atoms: _122  and  _123
REMARK   50  A    between atoms: _133  and  _135
REMARK   51  A    between atoms: _135  and  _136
REMARK   52  A    between atoms: _135  and  _138
REMARK   53  A    between atoms: _138  and  _139
REMARK   54  A    between atoms: _139  and  _140
REMARK   55  A    between atoms: _140  and  _141
REMARK   56  A    between atoms: _150  and  _152
REMARK   57  A    between atoms: _152  and  _153
REMARK   58  A    between atoms: _152  and  _155
REMARK   59  A    between atoms: _155  and  _156
REMARK   60  A    between atoms: _161  and  _163
REMARK   61  A    between atoms: _163  and  _164
REMARK   62  A    between atoms: _163  and  _166
REMARK   63  A    between atoms: _166  and  _167
REMARK   64  A    between atoms: _167  and  _168
REMARK   65  A    between atoms: _171  and  _173
REMARK   66  A    between atoms: _173  and  _174
REMARK   67  A    between atoms: _173  and  _176
REMARK   68  A    between atoms: _176  and  _177
REMARK   69  A    between atoms: _187  and  _189
REMARK   70  A    between atoms: _189  and  _190
REMARK   71  A    between atoms: _189  and  _192
REMARK   72  A    between atoms: _192  and  _193
REMARK   73  A    between atoms: _198  and  _199
REMARK   74  A    between atoms: _201  and  _203
REMARK   75  A    between atoms: _203  and  _204
REMARK   76  A    between atoms: _203  and  _206
REMARK   77  A    between atoms: _206  and  _207
REMARK   78  A    between atoms: _217  and  _219
REMARK   79  A    between atoms: _219  and  _220
REMARK   80  A    between atoms: _219  and  _222
REMARK   81  A    between atoms: _222  and  _223
REMARK   82  A    between atoms: _228  and  _230
REMARK   83  A    between atoms: _230  and  _231
REMARK   84  A    between atoms: _230  and  _233
REMARK   85  A    between atoms: _233  and  _234
REMARK   86  A    between atoms: _239  and  _241
REMARK   87  A    between atoms: _241  and  _242
REMARK   88  A    between atoms: _241  and  _244
REMARK   89  A    between atoms: _244  and  _245
REMARK   90  A    between atoms: _248  and  _250
REMARK   91  A    between atoms: _250  and  _251
REMARK   92  A    between atoms: _253  and  _255
REMARK   93  A    between atoms: _255  and  _256
REMARK   94  A    between atoms: _255  and  _258
REMARK   95  A    between atoms: _258  and  _259
REMARK   96  A    between atoms: _264  and  _265
REMARK   97  A    between atoms: _267  and  _269
REMARK   98  A    between atoms: _269  and  _270
REMARK   99  A    between atoms: _269  and  _272
REMARK  100  A    between atoms: _272  and  _273
REMARK  101  A    between atoms: _283  and  _285
REMARK  102  A    between atoms: _285  and  _286
REMARK  103  A    between atoms: _285  and  _288
REMARK  104  A    between atoms: _288  and  _289
REMARK  105  A    between atoms: _289  and  _290
REMARK  106  A    between atoms: _293  and  _295
REMARK  107  A    between atoms: _295  and  _296
REMARK  108  A    between atoms: _295  and  _298
REMARK  109  A    between atoms: _298  and  _299
REMARK  110  A    between atoms: _305  and  _307
REMARK  111  A    between atoms: _307  and  _308
REMARK  112  A    between atoms: _311  and  _313
REMARK  113  A    between atoms: _313  and  _314
REMARK  114  A    between atoms: _313  and  _316
REMARK  115  A    between atoms: _316  and  _317
REMARK  116  A    between atoms: _323  and  _325
REMARK  117  A    between atoms: _325  and  _326
REMARK  118  A    between atoms: _325  and  _328
REMARK  119  A    between atoms: _328  and  _329
REMARK  120  A    between atoms: _334  and  _336
REMARK  121  A    between atoms: _336  and  _337
REMARK  122  A    between atoms: _336  and  _339
REMARK  123  A    between atoms: _339  and  _340
REMARK  124  A    between atoms: _340  and  _341
REMARK  125  A    between atoms: _344  and  _346
REMARK  126  A    between atoms: _346  and  _347
REMARK  127  A    between atoms: _346  and  _349
REMARK  128  A    between atoms: _349  and  _350
REMARK  129  A    between atoms: _350  and  _351
REMARK  130  A    between atoms: _351  and  _352
REMARK  131  A    between atoms: _352  and  _353
REMARK  132  A    between atoms: _357  and  _359
REMARK  133  A    between atoms: _359  and  _360
REMARK  134  A    between atoms: _359  and  _362
REMARK  135  A    between atoms: _362  and  _363
REMARK  136  A    between atoms: _363  and  _364
REMARK  137  A    between atoms: _367  and  _369
REMARK  138  A    between atoms: _369  and  _370
REMARK  139  A    between atoms: _369  and  _372
REMARK  140  A    between atoms: _372  and  _373
REMARK  141  A    between atoms: _376  and  _378
REMARK  142  A    between atoms: _378  and  _379
REMARK  143  A    between atoms: _378  and  _381
REMARK  144  A    between atoms: _381  and  _382
REMARK                            x       y       z     vdW  Elec       q    Type
REMARK                         _______ _______ _______ _____ _____    ______ ____
ROOT
ATOM      1  CG  TRP A   1      28.174  40.300  16.509  0.00  0.00    -0.002 A 
ATOM      2  CD2 TRP A   1      26.778  40.486  16.818  0.00  0.00    +0.013 A 
ATOM      3  CE3 TRP A   1      25.995  41.593  17.162  0.00  0.00    +0.001 A 
ATOM      4  CZ3 TRP A   1      24.633  41.402  17.409  0.00  0.00    +0.000 A 
ATOM      5  CH2 TRP A   1      24.047  40.133  17.292  0.00  0.00    +0.001 A 
ATOM      6  CZ2 TRP A   1      24.793  39.029  16.956  0.00  0.00    +0.017 A 
ATOM      7  CE2 TRP A   1      26.156  39.218  16.711  0.00  0.00    +0.056 A 
ATOM      8  NE1 TRP A   1      27.126  38.315  16.369  0.00  0.00    -0.352 N 
ATOM      9  HE1 TRP A   1      26.979  37.295  16.228  0.00  0.00    +0.166 HD
ATOM     10  CD1 TRP A   1      28.332  38.977  16.242  0.00  0.00    +0.068 A 
ENDROOT
BRANCH   1  11
ATOM     11  CB  TRP A   1      29.235  41.346  16.484  0.00  0.00    +0.053 C 
BRANCH  11  12
ATOM     12  CA  TRP A   1      29.265  42.132  15.172  0.00  0.00    +0.137 C 
BRANCH  12  13
ATOM     13  N   TRP A   1      29.547  41.241  14.041  0.00  0.00    -0.239 NA
ATOM     14  H   TRP A   1      29.682  40.223  14.208  0.00  0.00    +0.142 HD
ENDBRANCH  12  13
BRANCH  12  15
ATOM     15  C   TRP A   1      30.321  43.232  15.235  0.00  0.00    +0.224 C 
ATOM     16  O   TRP A   1      30.044  44.358  15.662  0.00  0.00    -0.287 OA
ENDBRANCH  12  15
ENDBRANCH  11  12
ENDBRANCH   1  11
TORSDOF 4
REMARK  Name = ../refined-set-2016/2bvd/2bvd_pocket.pdb
REMARK  144 active torsions:
REMARK  status: ('A' for Active; 'I' for Inactive)
REMARK    1  A    between atoms: _1  and  _3
REMARK    2  A    between atoms: _3  and  _4
REMARK    3  A    between atoms: _3  and  _6
REMARK    4  A    between atoms: _6  and  _7
REMARK    5  A    between atoms: _17  and  _19
REMARK    6  A    between atoms: _19  and  _20
REMARK    7  A    between atoms: _22  and  _24
REMARK    8  A    between atoms: _24  and  _25
REMARK    9  A    between atoms: _24  and  _27
REMARK   10  A    between atoms: _27  and  _28
REMARK   11  A    between atoms: _31  and  _33
REMARK   12  A    between atoms: _33  and  _34
REMARK   13  A    between atoms: _33  and  _36
REMARK   14  A    between atoms: _36  and  _37
REMARK   15  A    between atoms: _37  and  _38
REMARK   16  A    between atoms: _43  and  _45
REMARK   17  A    between atoms: _45  and  _46
REMARK   18  A    between atoms: _45  and  _48
REMARK   19  A    between atoms: _48  and  _49
REMARK   20  A    between atoms: _54  and  _56
REMARK   21  A    between atoms: _56  and  _57
REMARK   22  A    between atoms: _56  and  _59
REMARK   23  A    between atoms: _59  and  _60
REMARK   24  A    between atoms: _60  and  _61
REMARK   25  A    between atoms: _66  and  _68
REMARK   26  A    between atoms: _68  and  _69
REMARK   27  A    between atoms: _68  and  _71
REMARK   28  A    between atoms: _71  and  _72
REMARK   29  A    between atoms: _78  and  _80
REMARK   30  A    between atoms: _80  and  _81
REMARK   31  A    between atoms: _80  and  _83
REMARK   32  A    between atoms: _83  and  _84
REMARK   33  A    between atoms: _87  and  _89
REMARK   34  A    between atoms: _89  and  _90
REMARK   35  A    between atoms: _89  and  _92
REMARK   36  A    between atoms: _92  and  _93
REMARK   37  A    between atoms: _98  and  _100
REMARK   38  A    between atoms: _100  and  _101
REMARK   39  A    between atoms: _100  and  _103
REMARK   40  A    between atoms: _103  and  _104
REMARK   41  A    between atoms: _107  and  _109
REMARK   42  A    between atoms: _109  and  _110
REMARK   43  A    between atoms: _109  and  _112
REMARK   44  A    between atoms: _112  and  _113
REMARK   45  A    between atoms: _113  and  _114
REMARK   46  A    between atoms: _117  and  _119
REMARK   47  A    between atoms: _119  and  _120
REMARK   48  A    between atoms: _119  and  _122
REMARK   49  A    between atoms: _122  and  _123
REMARK   50  A    between atoms: _133  and  _135
REMARK   51  A    between atoms: _135  and  _136
REMARK   52  A    between atoms: _135  and  _138
REMARK   53  A    between atoms: _138  and  _139
REMARK   54  A    between atoms: _139  and  _140
REMARK   55  A    between atoms: _140  and  _141
REMARK   56  A    between atoms: _150  and  _152
REMARK   57  A    between atoms: _152  and  _153
REMARK   58  A    between atoms: _152  and  _155
REMARK   59  A    between atoms: _155  and  _156
REMARK   60  A    between atoms: _161  and  _163
REMARK   61  A    between atoms: _163  and  _164
REMARK   62  A    between atoms: _163  and  _166
REMARK   63  A    between atoms: _166  and  _167
REMARK   64  A    between atoms: _167  and  _168
REMARK   65  A    between atoms: _171  and  _173
REMARK   66  A    between atoms: _173  and  _174
REMARK   67  A    between atoms: _173  and  _176
REMARK   68  A    between atoms: _176  and  _177
REMARK   69  A    between atoms: _187  and  _189
REMARK   70  A    between atoms: _189  and  _190
REMARK   71  A    between atoms: _189  and  _192
REMARK   72  A    between atoms: _192  and  _193
REMARK   73  A    between atoms: _198  and  _199
REMARK   74  A    between atoms: _201  and  _203
REMARK   75  A    between atoms: _203  and  _204
REMARK   76  A    between atoms: _203  and  _206
REMARK   77  A    between atoms: _206  and  _207
REMARK   78  A    between atoms: _217  and  _219
REMARK   79  A    between atoms: _219  and  _220
REMARK   80  A    between atoms: _219  and  _222
REMARK   81  A    between atoms: _222  and  _223
REMARK   82  A    between atoms: _228  and  _230
REMARK   83  A    between atoms: _230  and  _231
REMARK   84  A    between atoms: _230  and  _233
REMARK   85  A    between atoms: _233  and  _234
REMARK   86  A    between atoms: _239  and  _241
REMARK   87  A    between atoms: _241  and  _242
REMARK   88  A    between atoms: _241  and  _244
REMARK   89  A    between atoms: _244  and  _245
REMARK   90  A    between atoms: _248  and  _250
REMARK   91  A    between atoms: _250  and  _251
REMARK   92  A    between atoms: _253  and  _255
REMARK   93  A    between atoms: _255  and  _256
REMARK   94  A    between atoms: _255  and  _258
REMARK   95  A    between atoms: _258  and  _259
REMARK   96  A    between atoms: _264  and  _265
REMARK   97  A    between atoms: _267  and  _269
REMARK   98  A    between atoms: _269  and  _270
REMARK   99  A    between atoms: _269  and  _272
REMARK  100  A    between atoms: _272  and  _273
REMARK  101  A    between atoms: _283  and  _285
REMARK  102  A    between atoms: _285  and  _286
REMARK  103  A    between atoms: _285  and  _288
REMARK  104  A    between atoms: _288  and  _289
REMARK  105  A    between atoms: _289  and  _290
REMARK  106  A    between atoms: _293  and  _295
REMARK  107  A    between atoms: _295  and  _296
REMARK  108  A    between atoms: _295  and  _298
REMARK  109  A    between atoms: _298  and  _299
REMARK  110  A    between atoms: _305  and  _307
REMARK  111  A    between atoms: _307  and  _308
REMARK  112  A    between atoms: _311  and  _313
REMARK  113  A    between atoms: _313  and  _314
REMARK  114  A    between atoms: _313  and  _316
REMARK  115  A    between atoms: _316  and  _317
REMARK  116  A    between atoms: _323  and  _325
REMARK  117  A    between atoms: _325  and  _326
REMARK  118  A    between atoms: _325  and  _328
REMARK  119  A    between atoms: _328  and  _329
REMARK  120  A    between atoms: _334  and  _336
REMARK  121  A    between atoms: _336  and  _337
REMARK  122  A    between atoms: _336  and  _339
REMARK  123  A    between atoms: _339  and  _340
REMARK  124  A    between atoms: _340  and  _341
REMARK  125  A    between atoms: _344  and  _346
REMARK  126  A    between atoms: _346  and  _347
REMARK  127  A    between atoms: _346  and  _349
REMARK  128  A    between atoms: _349  and  _350
REMARK  129  A    between atoms: _350  and  _351
REMARK  130  A    between atoms: _351  and  _352
REMARK  131  A    between atoms: _352  and  _353
REMARK  132  A    between atoms: _357  and  _359
REMARK  133  A    between atoms: _359  and  _360
REMARK  134  A    between atoms: _359  and  _362
REMARK  135  A    between atoms: _362  and  _363
REMARK  136  A    between atoms: _363  and  _364
REMARK  137  A    between atoms: _367  and  _369
REMARK  138  A    between atoms: _369  and  _370
REMARK  139  A    between atoms: _369  and  _372
REMARK  140  A    between atoms: _372  and  _373
REMARK  141  A    between atoms: _376  and  _378
REMARK  142  A    between atoms: _378  and  _379
REMARK  143  A    between atoms: _378  and  _381
REMARK  144  A    between atoms: _381  and  _382
REMARK                            x       y       z     vdW  Elec       q    Type
REMARK                         _______ _______ _______ _____ _____    ______ ____
ROOT
ATOM      1  NE  ARG A   1      22.659  31.870   7.510  0.00  0.00    -0.265 N 
ATOM      2  CZ  ARG A   1      21.645  31.984   8.362  0.00  0.00    +0.342 C 
ATOM      3  NH2 ARG A   1      21.836  31.761   9.649  0.00  0.00    -0.292 N 
ATOM      4 HH21 ARG A   1      21.043  31.850  10.316  0.00  0.00    +0.255 HD
ATOM      5 HH22 ARG A   1      22.780  31.496   9.996  0.00  0.00    +0.255 HD
ATOM      6  NH1 ARG A   1      20.444  32.353   7.930  0.00  0.00    -0.292 N 
ATOM      7 HH11 ARG A   1      19.654  32.441   8.601  0.00  0.00    +0.255 HD
ATOM      8 HH12 ARG A   1      20.294  32.554   6.921  0.00  0.00    +0.255 HD
ATOM      9  HE  ARG A   1      23.587  31.595   7.891  0.00  0.00    +0.259 HD
ENDROOT
BRANCH   1  10
ATOM     10  CD  ARG A   1      22.552  32.107   6.072  0.00  0.00    +0.174 C 
BRANCH  10  11
ATOM     11  CG  ARG A   1      23.725  32.913   5.511  0.00  0.00    +0.045 C 
BRANCH  11  12
ATOM     12  CB  ARG A   1      25.049  32.166   5.631  0.00  0.00    +0.029 C 
BRANCH  12  13
ATOM     13  CA  ARG A   1      26.247  32.913   5.027  0.00  0.00    +0.133 C 
BRANCH  13  14
ATOM     14  N   ARG A   1      27.416  32.031   4.990  0.00  0.00    -0.239 NA
ATOM     15  H   ARG A   1      27.812  31.684   5.887  0.00  0.00    +0.142 HD
ENDBRANCH  13  14
BRANCH  13  16
ATOM     16  C   ARG A   1      26.578  34.178   5.832  0.00  0.00    +0.224 C 
ATOM     17  O   ARG A   1      26.237  34.289   7.020  0.00  0.00    -0.287 OA
ENDBRANCH  13  16
ENDBRANCH  12  13
ENDBRANCH  11  12
ENDBRANCH  10  11
ENDBRANCH   1  10
TORSDOF 6
REMARK  Name = ../refined-set-2016/2bvd/2bvd_pocket.pdb
REMARK  144 active torsions:
REMARK  status: ('A' for Active; 'I' for Inactive)
REMARK    1  A    between atoms: _1  and  _3
REMARK    2  A    between atoms: _3  and  _4
REMARK    3  A    between atoms: _3  and  _6
REMARK    4  A    between atoms: _6  and  _7
REMARK    5  A    between atoms: _17  and  _19
REMARK    6  A    between atoms: _19  and  _20
REMARK    7  A    between atoms: _22  and  _24
REMARK    8  A    between atoms: _24  and  _25
REMARK    9  A    between atoms: _24  and  _27
REMARK   10  A    between atoms: _27  and  _28
REMARK   11  A    between atoms: _31  and  _33
REMARK   12  A    between atoms: _33  and  _34
REMARK   13  A    between atoms: _33  and  _36
REMARK   14  A    between atoms: _36  and  _37
REMARK   15  A    between atoms: _37  and  _38
REMARK   16  A    between atoms: _43  and  _45
REMARK   17  A    between atoms: _45  and  _46
REMARK   18  A    between atoms: _45  and  _48
REMARK   19  A    between atoms: _48  and  _49
REMARK   20  A    between atoms: _54  and  _56
REMARK   21  A    between atoms: _56  and  _57
REMARK   22  A    between atoms: _56  and  _59
REMARK   23  A    between atoms: _59  and  _60
REMARK   24  A    between atoms: _60  and  _61
REMARK   25  A    between atoms: _66  and  _68
REMARK   26  A    between atoms: _68  and  _69
REMARK   27  A    between atoms: _68  and  _71
REMARK   28  A    between atoms: _71  and  _72
REMARK   29  A    between atoms: _78  and  _80
REMARK   30  A    between atoms: _80  and  _81
REMARK   31  A    between atoms: _80  and  _83
REMARK   32  A    between atoms: _83  and  _84
REMARK   33  A    between atoms: _87  and  _89
REMARK   34  A    between atoms: _89  and  _90
REMARK   35  A    between atoms: _89  and  _92
REMARK   36  A    between atoms: _92  and  _93
REMARK   37  A    between atoms: _98  and  _100
REMARK   38  A    between atoms: _100  and  _101
REMARK   39  A    between atoms: _100  and  _103
REMARK   40  A    between atoms: _103  and  _104
REMARK   41  A    between atoms: _107  and  _109
REMARK   42  A    between atoms: _109  and  _110
REMARK   43  A    between atoms: _109  and  _112
REMARK   44  A    between atoms: _112  and  _113
REMARK   45  A    between atoms: _113  and  _114
REMARK   46  A    between atoms: _117  and  _119
REMARK   47  A    between atoms: _119  and  _120
REMARK   48  A    between atoms: _119  and  _122
REMARK   49  A    between atoms: _122  and  _123
REMARK   50  A    between atoms: _133  and  _135
REMARK   51  A    between atoms: _135  and  _136
REMARK   52  A    between atoms: _135  and  _138
REMARK   53  A    between atoms: _138  and  _139
REMARK   54  A    between atoms: _139  and  _140
REMARK   55  A    between atoms: _140  and  _141
REMARK   56  A    between atoms: _150  and  _152
REMARK   57  A    between atoms: _152  and  _153
REMARK   58  A    between atoms: _152  and  _155
REMARK   59  A    between atoms: _155  and  _156
REMARK   60  A    between atoms: _161  and  _163
REMARK   61  A    between atoms: _163  and  _164
REMARK   62  A    between atoms: _163  and  _166
REMARK   63  A    between atoms: _166  and  _167
REMARK   64  A    between atoms: _167  and  _168
REMARK   65  A    between atoms: _171  and  _173
REMARK   66  A    between atoms: _173  and  _174
REMARK   67  A    between atoms: _173  and  _176
REMARK   68  A    between atoms: _176  and  _177
REMARK   69  A    between atoms: _187  and  _189
REMARK   70  A    between atoms: _189  and  _190
REMARK   71  A    between atoms: _189  and  _192
REMARK   72  A    between atoms: _192  and  _193
REMARK   73  A    between atoms: _198  and  _199
REMARK   74  A    between atoms: _201  and  _203
REMARK   75  A    between atoms: _203  and  _204
REMARK   76  A    between atoms: _203  and  _206
REMARK   77  A    between atoms: _206  and  _207
REMARK   78  A    between atoms: _217  and  _219
REMARK   79  A    between atoms: _219  and  _220
REMARK   80  A    between atoms: _219  and  _222
REMARK   81  A    between atoms: _222  and  _223
REMARK   82  A    between atoms: _228  and  _230
REMARK   83  A    between atoms: _230  and  _231
REMARK   84  A    between atoms: _230  and  _233
REMARK   85  A    between atoms: _233  and  _234
REMARK   86  A    between atoms: _239  and  _241
REMARK   87  A    between atoms: _241  and  _242
REMARK   88  A    between atoms: _241  and  _244
REMARK   89  A    between atoms: _244  and  _245
REMARK   90  A    between atoms: _248  and  _250
REMARK   91  A    between atoms: _250  and  _251
REMARK   92  A    between atoms: _253  and  _255
REMARK   93  A    between atoms: _255  and  _256
REMARK   94  A    between atoms: _255  and  _258
REMARK   95  A    between atoms: _258  and  _259
REMARK   96  A    between atoms: _264  and  _265
REMARK   97  A    between atoms: _267  and  _269
REMARK   98  A    between atoms: _269  and  _270
REMARK   99  A    between atoms: _269  and  _272
REMARK  100  A    between atoms: _272  and  _273
REMARK  101  A    between atoms: _283  and  _285
REMARK  102  A    between atoms: _285  and  _286
REMARK  103  A    between atoms: _285  and  _288
REMARK  104  A    between atoms: _288  and  _289
REMARK  105  A    between atoms: _289  and  _290
REMARK  106  A    between atoms: _293  and  _295
REMARK  107  A    between atoms: _295  and  _296
REMARK  108  A    between atoms: _295  and  _298
REMARK  109  A    between atoms: _298  and  _299
REMARK  110  A    between atoms: _305  and  _307
REMARK  111  A    between atoms: _307  and  _308
REMARK  112  A    between atoms: _311  and  _313
REMARK  113  A    between atoms: _313  and  _314
REMARK  114  A    between atoms: _313  and  _316
REMARK  115  A    between atoms: _316  and  _317
REMARK  116  A    between atoms: _323  and  _325
REMARK  117  A    between atoms: _325  and  _326
REMARK  118  A    between atoms: _325  and  _328
REMARK  119  A    between atoms: _328  and  _329
REMARK  120  A    between atoms: _334  and  _336
REMARK  121  A    between atoms: _336  and  _337
REMARK  122  A    between atoms: _336  and  _339
REMARK  123  A    between atoms: _339  and  _340
REMARK  124  A    between atoms: _340  and  _341
REMARK  125  A    between atoms: _344  and  _346
REMARK  126  A    between atoms: _346  and  _347
REMARK  127  A    between atoms: _346  and  _349
REMARK  128  A    between atoms: _349  and  _350
REMARK  129  A    between atoms: _350  and  _351
REMARK  130  A    between atoms: _351  and  _352
REMARK  131  A    between atoms: _352  and  _353
REMARK  132  A    between atoms: _357  and  _359
REMARK  133  A    between atoms: _359  and  _360
REMARK  134  A    between atoms: _359  and  _362
REMARK  135  A    between atoms: _362  and  _363
REMARK  136  A    between atoms: _363  and  _364
REMARK  137  A    between atoms: _367  and  _369
REMARK  138  A    between atoms: _369  and  _370
REMARK  139  A    between atoms: _369  and  _372
REMARK  140  A    between atoms: _372  and  _373
REMARK  141  A    between atoms: _376  and  _378
REMARK  142  A    between atoms: _378  and  _379
REMARK  143  A    between atoms: _378  and  _381
REMARK  144  A    between atoms: _381  and  _382
REMARK                            x       y       z     vdW  Elec       q    Type
REMARK                         _______ _______ _______ _____ _____    ______ ____
ROOT
ATOM      1  C   HIS A   1      21.182  38.391   7.856  0.00  0.00    +0.239 C 
ATOM      2  O   HIS A   1      21.372  39.485   8.404  0.00  0.00    -0.274 OA
ATOM      3  N   GLU A   2      19.975  37.862   7.699  0.00  0.00    -0.298 N 
ATOM      4  H   GLU A   2      19.886  36.956   7.196  0.00  0.00    +0.150 HD
ENDROOT
BRANCH   1   5
ATOM      5  CA  HIS A   1      22.352  37.584   7.301  0.00  0.00    +0.151 C 
BRANCH   5   6
ATOM      6  N   HIS A   1      23.661  38.137   7.660  0.00  0.00    -0.238 NA
ATOM      7  H   HIS A   1      24.236  37.657   8.382  0.00  0.00    +0.142 HD
ENDBRANCH   5   6
BRANCH   5   8
ATOM      8  CB  HIS A   1      22.254  36.120   7.733  0.00  0.00    +0.074 C 
BRANCH   8   9
ATOM      9  CG  HIS A   1      22.154  35.927   9.213  0.00  0.00    +0.082 A 
ATOM     10  ND1 HIS A   1      23.124  36.365  10.089  0.00  0.00    -0.227 NA
ATOM     11  CE1 HIS A   1      22.768  36.059  11.323  0.00  0.00    +0.199 A 
ATOM     12  NE2 HIS A   1      21.605  35.433  11.279  0.00  0.00    -0.221 NA
ATOM     13  CD2 HIS A   1      21.202  35.331   9.971  0.00  0.00    +0.115 A 
ENDBRANCH   8   9
ENDBRANCH   5   8
ENDBRANCH   1   5
BRANCH   3  14
ATOM     14  CA  GLU A   2      18.761  38.511   8.211  0.00  0.00    +0.137 C 
BRANCH  14  15
ATOM     15  C   GLU A   2      18.846  40.033   8.124  0.00  0.00    +0.227 C 
ATOM     16  O   GLU A   2      18.394  40.751   9.024  0.00  0.00    -0.286 OA
ENDBRANCH  14  15
BRANCH  14  17
ATOM     17  CB  GLU A   2      18.454  38.028   9.632  0.00  0.00    +0.039 C 
BRANCH  17  18
ATOM     18  CG  GLU A   2      17.942  36.566   9.658  0.00  0.00    +0.116 C 
BRANCH  18  19
ATOM     19  CD  GLU A   2      17.826  35.970  11.066  0.00  0.00    +0.365 C 
ATOM     20  OE2 GLU A   2      18.017  36.684  12.069  0.00  0.00    -0.246 OA
ATOM     21  OE1 GLU A   2      17.528  34.762  11.163  0.00  0.00    -0.246 OA
ENDBRANCH  18  19
ENDBRANCH  17  18
ENDBRANCH  14  17
ENDBRANCH   3  14
TORSDOF 9
REMARK  Name = ../refined-set-2016/2bvd/2bvd_pocket.pdb
REMARK  144 active torsions:
REMARK  status: ('A' for Active; 'I' for Inactive)
REMARK    1  A    between atoms: _1  and  _3
REMARK    2  A    between atoms: _3  and  _4
REMARK    3  A    between atoms: _3  and  _6
REMARK    4  A    between atoms: _6  and  _7
REMARK    5  A    between atoms: _17  and  _19
REMARK    6  A    between atoms: _19  and  _20
REMARK    7  A    between atoms: _22  and  _24
REMARK    8  A    between atoms: _24  and  _25
REMARK    9  A    between atoms: _24  and  _27
REMARK   10  A    between atoms: _27  and  _28
REMARK   11  A    between atoms: _31  and  _33
REMARK   12  A    between atoms: _33  and  _34
REMARK   13  A    between atoms: _33  and  _36
REMARK   14  A    between atoms: _36  and  _37
REMARK   15  A    between atoms: _37  and  _38
REMARK   16  A    between atoms: _43  and  _45
REMARK   17  A    between atoms: _45  and  _46
REMARK   18  A    between atoms: _45  and  _48
REMARK   19  A    between atoms: _48  and  _49
REMARK   20  A    between atoms: _54  and  _56
REMARK   21  A    between atoms: _56  and  _57
REMARK   22  A    between atoms: _56  and  _59
REMARK   23  A    between atoms: _59  and  _60
REMARK   24  A    between atoms: _60  and  _61
REMARK   25  A    between atoms: _66  and  _68
REMARK   26  A    between atoms: _68  and  _69
REMARK   27  A    between atoms: _68  and  _71
REMARK   28  A    between atoms: _71  and  _72
REMARK   29  A    between atoms: _78  and  _80
REMARK   30  A    between atoms: _80  and  _81
REMARK   31  A    between atoms: _80  and  _83
REMARK   32  A    between atoms: _83  and  _84
REMARK   33  A    between atoms: _87  and  _89
REMARK   34  A    between atoms: _89  and  _90
REMARK   35  A    between atoms: _89  and  _92
REMARK   36  A    between atoms: _92  and  _93
REMARK   37  A    between atoms: _98  and  _100
REMARK   38  A    between atoms: _100  and  _101
REMARK   39  A    between atoms: _100  and  _103
REMARK   40  A    between atoms: _103  and  _104
REMARK   41  A    between atoms: _107  and  _109
REMARK   42  A    between atoms: _109  and  _110
REMARK   43  A    between atoms: _109  and  _112
REMARK   44  A    between atoms: _112  and  _113
REMARK   45  A    between atoms: _113  and  _114
REMARK   46  A    between atoms: _117  and  _119
REMARK   47  A    between atoms: _119  and  _120
REMARK   48  A    between atoms: _119  and  _122
REMARK   49  A    between atoms: _122  and  _123
REMARK   50  A    between atoms: _133  and  _135
REMARK   51  A    between atoms: _135  and  _136
REMARK   52  A    between atoms: _135  and  _138
REMARK   53  A    between atoms: _138  and  _139
REMARK   54  A    between atoms: _139  and  _140
REMARK   55  A    between atoms: _140  and  _141
REMARK   56  A    between atoms: _150  and  _152
REMARK   57  A    between atoms: _152  and  _153
REMARK   58  A    between atoms: _152  and  _155
REMARK   59  A    between atoms: _155  and  _156
REMARK   60  A    between atoms: _161  and  _163
REMARK   61  A    between atoms: _163  and  _164
REMARK   62  A    between atoms: _163  and  _166
REMARK   63  A    between atoms: _166  and  _167
REMARK   64  A    between atoms: _167  and  _168
REMARK   65  A    between atoms: _171  and  _173
REMARK   66  A    between atoms: _173  and  _174
REMARK   67  A    between atoms: _173  and  _176
REMARK   68  A    between atoms: _176  and  _177
REMARK   69  A    between atoms: _187  and  _189
REMARK   70  A    between atoms: _189  and  _190
REMARK   71  A    between atoms: _189  and  _192
REMARK   72  A    between atoms: _192  and  _193
REMARK   73  A    between atoms: _198  and  _199
REMARK   74  A    between atoms: _201  and  _203
REMARK   75  A    between atoms: _203  and  _204
REMARK   76  A    between atoms: _203  and  _206
REMARK   77  A    between atoms: _206  and  _207
REMARK   78  A    between atoms: _217  and  _219
REMARK   79  A    between atoms: _219  and  _220
REMARK   80  A    between atoms: _219  and  _222
REMARK   81  A    between atoms: _222  and  _223
REMARK   82  A    between atoms: _228  and  _230
REMARK   83  A    between atoms: _230  and  _231
REMARK   84  A    between atoms: _230  and  _233
REMARK   85  A    between atoms: _233  and  _234
REMARK   86  A    between atoms: _239  and  _241
REMARK   87  A    between atoms: _241  and  _242
REMARK   88  A    between atoms: _241  and  _244
REMARK   89  A    between atoms: _244  and  _245
REMARK   90  A    between atoms: _248  and  _250
REMARK   91  A    between atoms: _250  and  _251
REMARK   92  A    between atoms: _253  and  _255
REMARK   93  A    between atoms: _255  and  _256
REMARK   94  A    between atoms: _255  and  _258
REMARK   95  A    between atoms: _258  and  _259
REMARK   96  A    between atoms: _264  and  _265
REMARK   97  A    between atoms: _267  and  _269
REMARK   98  A    between atoms: _269  and  _270
REMARK   99  A    between atoms: _269  and  _272
REMARK  100  A    between atoms: _272  and  _273
REMARK  101  A    between atoms: _283  and  _285
REMARK  102  A    between atoms: _285  and  _286
REMARK  103  A    between atoms: _285  and  _288
REMARK  104  A    between atoms: _288  and  _289
REMARK  105  A    between atoms: _289  and  _290
REMARK  106  A    between atoms: _293  and  _295
REMARK  107  A    between atoms: _295  and  _296
REMARK  108  A    between atoms: _295  and  _298
REMARK  109  A    between atoms: _298  and  _299
REMARK  110  A    between atoms: _305  and  _307
REMARK  111  A    between atoms: _307  and  _308
REMARK  112  A    between atoms: _311  and  _313
REMARK  113  A    between atoms: _313  and  _314
REMARK  114  A    between atoms: _313  and  _316
REMARK  115  A    between atoms: _316  and  _317
REMARK  116  A    between atoms: _323  and  _325
REMARK  117  A    between atoms: _325  and  _326
REMARK  118  A    between atoms: _325  and  _328
REMARK  119  A    between atoms: _328  and  _329
REMARK  120  A    between atoms: _334  and  _336
REMARK  121  A    between atoms: _336  and  _337
REMARK  122  A    between atoms: _336  and  _339
REMARK  123  A    between atoms: _339  and  _340
REMARK  124  A    between atoms: _340  and  _341
REMARK  125  A    between atoms: _344  and  _346
REMARK  126  A    between atoms: _346  and  _347
REMARK  127  A    between atoms: _346  and  _349
REMARK  128  A    between atoms: _349  and  _350
REMARK  129  A    between atoms: _350  and  _351
REMARK  130  A    between atoms: _351  and  _352
REMARK  131  A    between atoms: _352  and  _353
REMARK  132  A    between atoms: _357  and  _359
REMARK  133  A    between atoms: _359  and  _360
REMARK  134  A    between atoms: _359  and  _362
REMARK  135  A    between atoms: _362  and  _363
REMARK  136  A    between atoms: _363  and  _364
REMARK  137  A    between atoms: _367  and  _369
REMARK  138  A    between atoms: _369  and  _370
REMARK  139  A    between atoms: _369  and  _372
REMARK  140  A    between atoms: _372  and  _373
REMARK  141  A    between atoms: _376  and  _378
REMARK  142  A    between atoms: _378  and  _379
REMARK  143  A    between atoms: _378  and  _381
REMARK  144  A    between atoms: _381  and  _382
REMARK                            x       y       z     vdW  Elec       q    Type
REMARK                         _______ _______ _______ _____ _____    ______ ____
ROOT
ATOM      1  C   TRP A   1      19.739  43.158  15.077  0.00  0.00    +0.239 C 
ATOM      2  O   TRP A   1      20.425  43.131  16.103  0.00  0.00    -0.274 OA
ATOM      3  N   TYR A   2      20.268  43.082  13.863  0.00  0.00    -0.298 N 
ATOM      4  H   TYR A   2      19.655  43.088  13.023  0.00  0.00    +0.150 HD
ENDROOT
BRANCH   1   5
ATOM      5  CA  TRP A   1      18.228  43.269  15.178  0.00  0.00    +0.149 C 
BRANCH   5   6
ATOM      6  N   TRP A   1      17.546  43.690  13.949  0.00  0.00    -0.238 NA
ATOM      7  H   TRP A   1      17.350  42.992  13.203  0.00  0.00    +0.142 HD
ENDBRANCH   5   6
BRANCH   5   8
ATOM      8  CB  TRP A   1      17.631  41.977  15.738  0.00  0.00    +0.054 C 
BRANCH   8   9
ATOM      9  CG  TRP A   1      17.391  40.905  14.722  0.00  0.00    -0.002 A 
ATOM     10  CD1 TRP A   1      18.266  39.939  14.319  0.00  0.00    +0.068 A 
ATOM     11  NE1 TRP A   1      17.673  39.124  13.376  0.00  0.00    -0.352 N 
ATOM     12  CE2 TRP A   1      16.390  39.554  13.162  0.00  0.00    +0.056 A 
ATOM     13  CZ2 TRP A   1      15.392  39.044  12.314  0.00  0.00    +0.017 A 
ATOM     14  CH2 TRP A   1      14.181  39.696  12.298  0.00  0.00    +0.001 A 
ATOM     15  CZ3 TRP A   1      13.927  40.817  13.126  0.00  0.00    +0.000 A 
ATOM     16  CE3 TRP A   1      14.916  41.316  13.974  0.00  0.00    +0.001 A 
ATOM     17  HE1 TRP A   1      18.126  38.315  12.905  0.00  0.00    +0.166 HD
ATOM     18  CD2 TRP A   1      16.173  40.677  13.999  0.00  0.00    +0.013 A 
ENDBRANCH   8   9
ENDBRANCH   5   8
ENDBRANCH   1   5
BRANCH   3  19
ATOM     19  CA  TYR A   2      21.703  42.991  13.716  0.00  0.00    +0.141 C 
BRANCH  19  20
ATOM     20  C   TYR A   2      22.315  44.332  13.304  0.00  0.00    +0.227 C 
ATOM     21  O   TYR A   2      21.702  45.083  12.548  0.00  0.00    -0.286 OA
ENDBRANCH  19  20
BRANCH  19  22
ATOM     22  CB  TYR A   2      22.045  41.939  12.669  0.00  0.00    +0.054 C 
BRANCH  22  23
ATOM     23  CG  TYR A   2      21.760  40.511  13.080  0.00  0.00    -0.020 A 
ATOM     24  CD2 TYR A   2      22.198  40.018  14.312  0.00  0.00    -0.001 A 
ATOM     25  CE2 TYR A   2      21.971  38.710  14.680  0.00  0.00    +0.036 A 
ATOM     26  CZ  TYR A   2      21.315  37.858  13.806  0.00  0.00    +0.134 A 
ATOM     27  CE1 TYR A   2      20.880  38.310  12.576  0.00  0.00    +0.036 A 
ATOM     28  CD1 TYR A   2      21.113  39.636  12.207  0.00  0.00    -0.001 A 
BRANCH  26  29
ATOM     29  OH  TYR A   2      21.093  36.546  14.157  0.00  0.00    -0.506 OA
ATOM     30  HH  TYR A   2      21.461  36.381  15.061  0.00  0.00    +0.292 HD
ENDBRANCH  26  29
ENDBRANCH  22  23
ENDBRANCH  19  22
ENDBRANCH   3  19
TORSDOF 9
REMARK  Name = ../refined-set-2016/2bvd/2bvd_pocket.pdb
REMARK  144 active torsions:
REMARK  status: ('A' for Active; 'I' for Inactive)
REMARK    1  A    between atoms: _1  and  _3
REMARK    2  A    between atoms: _3  and  _4
REMARK    3  A    between atoms: _3  and  _6
REMARK    4  A    between atoms: _6  and  _7
REMARK    5  A    between atoms: _17  and  _19
REMARK    6  A    between atoms: _19  and  _20
REMARK    7  A    between atoms: _22  and  _24
REMARK    8  A    between atoms: _24  and  _25
REMARK    9  A    between atoms: _24  and  _27
REMARK   10  A    between atoms: _27  and  _28
REMARK   11  A    between atoms: _31  and  _33
REMARK   12  A    between atoms: _33  and  _34
REMARK   13  A    between atoms: _33  and  _36
REMARK   14  A    between atoms: _36  and  _37
REMARK   15  A    between atoms: _37  and  _38
REMARK   16  A    between atoms: _43  and  _45
REMARK   17  A    between atoms: _45  and  _46
REMARK   18  A    between atoms: _45  and  _48
REMARK   19  A    between atoms: _48  and  _49
REMARK   20  A    between atoms: _54  and  _56
REMARK   21  A    between atoms: _56  and  _57
REMARK   22  A    between atoms: _56  and  _59
REMARK   23  A    between atoms: _59  and  _60
REMARK   24  A    between atoms: _60  and  _61
REMARK   25  A    between atoms: _66  and  _68
REMARK   26  A    between atoms: _68  and  _69
REMARK   27  A    between atoms: _68  and  _71
REMARK   28  A    between atoms: _71  and  _72
REMARK   29  A    between atoms: _78  and  _80
REMARK   30  A    between atoms: _80  and  _81
REMARK   31  A    between atoms: _80  and  _83
REMARK   32  A    between atoms: _83  and  _84
REMARK   33  A    between atoms: _87  and  _89
REMARK   34  A    between atoms: _89  and  _90
REMARK   35  A    between atoms: _89  and  _92
REMARK   36  A    between atoms: _92  and  _93
REMARK   37  A    between atoms: _98  and  _100
REMARK   38  A    between atoms: _100  and  _101
REMARK   39  A    between atoms: _100  and  _103
REMARK   40  A    between atoms: _103  and  _104
REMARK   41  A    between atoms: _107  and  _109
REMARK   42  A    between atoms: _109  and  _110
REMARK   43  A    between atoms: _109  and  _112
REMARK   44  A    between atoms: _112  and  _113
REMARK   45  A    between atoms: _113  and  _114
REMARK   46  A    between atoms: _117  and  _119
REMARK   47  A    between atoms: _119  and  _120
REMARK   48  A    between atoms: _119  and  _122
REMARK   49  A    between atoms: _122  and  _123
REMARK   50  A    between atoms: _133  and  _135
REMARK   51  A    between atoms: _135  and  _136
REMARK   52  A    between atoms: _135  and  _138
REMARK   53  A    between atoms: _138  and  _139
REMARK   54  A    between atoms: _139  and  _140
REMARK   55  A    between atoms: _140  and  _141
REMARK   56  A    between atoms: _150  and  _152
REMARK   57  A    between atoms: _152  and  _153
REMARK   58  A    between atoms: _152  and  _155
REMARK   59  A    between atoms: _155  and  _156
REMARK   60  A    between atoms: _161  and  _163
REMARK   61  A    between atoms: _163  and  _164
REMARK   62  A    between atoms: _163  and  _166
REMARK   63  A    between atoms: _166  and  _167
REMARK   64  A    between atoms: _167  and  _168
REMARK   65  A    between atoms: _171  and  _173
REMARK   66  A    between atoms: _173  and  _174
REMARK   67  A    between atoms: _173  and  _176
REMARK   68  A    between atoms: _176  and  _177
REMARK   69  A    between atoms: _187  and  _189
REMARK   70  A    between atoms: _189  and  _190
REMARK   71  A    between atoms: _189  and  _192
REMARK   72  A    between atoms: _192  and  _193
REMARK   73  A    between atoms: _198  and  _199
REMARK   74  A    between atoms: _201  and  _203
REMARK   75  A    between atoms: _203  and  _204
REMARK   76  A    between atoms: _203  and  _206
REMARK   77  A    between atoms: _206  and  _207
REMARK   78  A    between atoms: _217  and  _219
REMARK   79  A    between atoms: _219  and  _220
REMARK   80  A    between atoms: _219  and  _222
REMARK   81  A    between atoms: _222  and  _223
REMARK   82  A    between atoms: _228  and  _230
REMARK   83  A    between atoms: _230  and  _231
REMARK   84  A    between atoms: _230  and  _233
REMARK   85  A    between atoms: _233  and  _234
REMARK   86  A    between atoms: _239  and  _241
REMARK   87  A    between atoms: _241  and  _242
REMARK   88  A    between atoms: _241  and  _244
REMARK   89  A    between atoms: _244  and  _245
REMARK   90  A    between atoms: _248  and  _250
REMARK   91  A    between atoms: _250  and  _251
REMARK   92  A    between atoms: _253  and  _255
REMARK   93  A    between atoms: _255  and  _256
REMARK   94  A    between atoms: _255  and  _258
REMARK   95  A    between atoms: _258  and  _259
REMARK   96  A    between atoms: _264  and  _265
REMARK   97  A    between atoms: _267  and  _269
REMARK   98  A    between atoms: _269  and  _270
REMARK   99  A    between atoms: _269  and  _272
REMARK  100  A    between atoms: _272  and  _273
REMARK  101  A    between atoms: _283  and  _285
REMARK  102  A    between atoms: _285  and  _286
REMARK  103  A    between atoms: _285  and  _288
REMARK  104  A    between atoms: _288  and  _289
REMARK  105  A    between atoms: _289  and  _290
REMARK  106  A    between atoms: _293  and  _295
REMARK  107  A    between atoms: _295  and  _296
REMARK  108  A    between atoms: _295  and  _298
REMARK  109  A    between atoms: _298  and  _299
REMARK  110  A    between atoms: _305  and  _307
REMARK  111  A    between atoms: _307  and  _308
REMARK  112  A    between atoms: _311  and  _313
REMARK  113  A    between atoms: _313  and  _314
REMARK  114  A    between atoms: _313  and  _316
REMARK  115  A    between atoms: _316  and  _317
REMARK  116  A    between atoms: _323  and  _325
REMARK  117  A    between atoms: _325  and  _326
REMARK  118  A    between atoms: _325  and  _328
REMARK  119  A    between atoms: _328  and  _329
REMARK  120  A    between atoms: _334  and  _336
REMARK  121  A    between atoms: _336  and  _337
REMARK  122  A    between atoms: _336  and  _339
REMARK  123  A    between atoms: _339  and  _340
REMARK  124  A    between atoms: _340  and  _341
REMARK  125  A    between atoms: _344  and  _346
REMARK  126  A    between atoms: _346  and  _347
REMARK  127  A    between atoms: _346  and  _349
REMARK  128  A    between atoms: _349  and  _350
REMARK  129  A    between atoms: _350  and  _351
REMARK  130  A    between atoms: _351  and  _352
REMARK  131  A    between atoms: _352  and  _353
REMARK  132  A    between atoms: _357  and  _359
REMARK  133  A    between atoms: _359  and  _360
REMARK  134  A    between atoms: _359  and  _362
REMARK  135  A    between atoms: _362  and  _363
REMARK  136  A    between atoms: _363  and  _364
REMARK  137  A    between atoms: _367  and  _369
REMARK  138  A    between atoms: _369  and  _370
REMARK  139  A    between atoms: _369  and  _372
REMARK  140  A    between atoms: _372  and  _373
REMARK  141  A    between atoms: _376  and  _378
REMARK  142  A    between atoms: _378  and  _379
REMARK  143  A    between atoms: _378  and  _381
REMARK  144  A    between atoms: _381  and  _382
REMARK                            x       y       z     vdW  Elec       q    Type
REMARK                         _______ _______ _______ _____ _____    ______ ____
ROOT
ATOM      1  CG  TRP A   1      24.949  42.677   9.614  0.00  0.00    -0.002 A 
ATOM      2  CD2 TRP A   1      25.204  41.844  10.750  0.00  0.00    +0.013 A 
ATOM      3  CE3 TRP A   1      26.004  41.978  11.889  0.00  0.00    +0.001 A 
ATOM      4  CZ3 TRP A   1      26.013  40.948  12.826  0.00  0.00    +0.000 A 
ATOM      5  CH2 TRP A   1      25.223  39.792  12.645  0.00  0.00    +0.001 A 
ATOM      6  CZ2 TRP A   1      24.425  39.636  11.539  0.00  0.00    +0.017 A 
ATOM      7  CE2 TRP A   1      24.423  40.672  10.595  0.00  0.00    +0.056 A 
ATOM      8  NE1 TRP A   1      23.711  40.801   9.431  0.00  0.00    -0.352 N 
ATOM      9  HE1 TRP A   1      23.030  40.109   9.058  0.00  0.00    +0.166 HD
ATOM     10  CD1 TRP A   1      24.046  41.998   8.837  0.00  0.00    +0.068 A 
ENDROOT
BRANCH   1  11
ATOM     11  CB  TRP A   1      25.566  44.022   9.326  0.00  0.00    +0.053 C 
BRANCH  11  12
ATOM     12  CA  TRP A   1      24.714  45.201   9.788  0.00  0.00    +0.137 C 
BRANCH  12  13
ATOM     13  N   TRP A   1      24.464  45.107  11.231  0.00  0.00    -0.239 NA
ATOM     14  H   TRP A   1      24.178  44.189  11.627  0.00  0.00    +0.142 HD
ENDBRANCH  12  13
BRANCH  12  15
ATOM     15  C   TRP A   1      23.412  45.196   8.985  0.00  0.00    +0.224 C 
ATOM     16  O   TRP A   1      23.451  45.273   7.753  0.00  0.00    -0.287 OA
ENDBRANCH  12  15
ENDBRANCH  11  12
ENDBRANCH   1  11
TORSDOF 4
REMARK  Name = ../refined-set-2016/2bvd/2bvd_pocket.pdb
REMARK  144 active torsions:
REMARK  status: ('A' for Active; 'I' for Inactive)
REMARK    1  A    between atoms: _1  and  _3
REMARK    2  A    between atoms: _3  and  _4
REMARK    3  A    between atoms: _3  and  _6
REMARK    4  A    between atoms: _6  and  _7
REMARK    5  A    between atoms: _17  and  _19
REMARK    6  A    between atoms: _19  and  _20
REMARK    7  A    between atoms: _22  and  _24
REMARK    8  A    between atoms: _24  and  _25
REMARK    9  A    between atoms: _24  and  _27
REMARK   10  A    between atoms: _27  and  _28
REMARK   11  A    between atoms: _31  and  _33
REMARK   12  A    between atoms: _33  and  _34
REMARK   13  A    between atoms: _33  and  _36
REMARK   14  A    between atoms: _36  and  _37
REMARK   15  A    between atoms: _37  and  _38
REMARK   16  A    between atoms: _43  and  _45
REMARK   17  A    between atoms: _45  and  _46
REMARK   18  A    between atoms: _45  and  _48
REMARK   19  A    between atoms: _48  and  _49
REMARK   20  A    between atoms: _54  and  _56
REMARK   21  A    between atoms: _56  and  _57
REMARK   22  A    between atoms: _56  and  _59
REMARK   23  A    between atoms: _59  and  _60
REMARK   24  A    between atoms: _60  and  _61
REMARK   25  A    between atoms: _66  and  _68
REMARK   26  A    between atoms: _68  and  _69
REMARK   27  A    between atoms: _68  and  _71
REMARK   28  A    between atoms: _71  and  _72
REMARK   29  A    between atoms: _78  and  _80
REMARK   30  A    between atoms: _80  and  _81
REMARK   31  A    between atoms: _80  and  _83
REMARK   32  A    between atoms: _83  and  _84
REMARK   33  A    between atoms: _87  and  _89
REMARK   34  A    between atoms: _89  and  _90
REMARK   35  A    between atoms: _89  and  _92
REMARK   36  A    between atoms: _92  and  _93
REMARK   37  A    between atoms: _98  and  _100
REMARK   38  A    between atoms: _100  and  _101
REMARK   39  A    between atoms: _100  and  _103
REMARK   40  A    between atoms: _103  and  _104
REMARK   41  A    between atoms: _107  and  _109
REMARK   42  A    between atoms: _109  and  _110
REMARK   43  A    between atoms: _109  and  _112
REMARK   44  A    between atoms: _112  and  _113
REMARK   45  A    between atoms: _113  and  _114
REMARK   46  A    between atoms: _117  and  _119
REMARK   47  A    between atoms: _119  and  _120
REMARK   48  A    between atoms: _119  and  _122
REMARK   49  A    between atoms: _122  and  _123
REMARK   50  A    between atoms: _133  and  _135
REMARK   51  A    between atoms: _135  and  _136
REMARK   52  A    between atoms: _135  and  _138
REMARK   53  A    between atoms: _138  and  _139
REMARK   54  A    between atoms: _139  and  _140
REMARK   55  A    between atoms: _140  and  _141
REMARK   56  A    between atoms: _150  and  _152
REMARK   57  A    between atoms: _152  and  _153
REMARK   58  A    between atoms: _152  and  _155
REMARK   59  A    between atoms: _155  and  _156
REMARK   60  A    between atoms: _161  and  _163
REMARK   61  A    between atoms: _163  and  _164
REMARK   62  A    between atoms: _163  and  _166
REMARK   63  A    between atoms: _166  and  _167
REMARK   64  A    between atoms: _167  and  _168
REMARK   65  A    between atoms: _171  and  _173
REMARK   66  A    between atoms: _173  and  _174
REMARK   67  A    between atoms: _173  and  _176
REMARK   68  A    between atoms: _176  and  _177
REMARK   69  A    between atoms: _187  and  _189
REMARK   70  A    between atoms: _189  and  _190
REMARK   71  A    between atoms: _189  and  _192
REMARK   72  A    between atoms: _192  and  _193
REMARK   73  A    between atoms: _198  and  _199
REMARK   74  A    between atoms: _201  and  _203
REMARK   75  A    between atoms: _203  and  _204
REMARK   76  A    between atoms: _203  and  _206
REMARK   77  A    between atoms: _206  and  _207
REMARK   78  A    between atoms: _217  and  _219
REMARK   79  A    between atoms: _219  and  _220
REMARK   80  A    between atoms: _219  and  _222
REMARK   81  A    between atoms: _222  and  _223
REMARK   82  A    between atoms: _228  and  _230
REMARK   83  A    between atoms: _230  and  _231
REMARK   84  A    between atoms: _230  and  _233
REMARK   85  A    between atoms: _233  and  _234
REMARK   86  A    between atoms: _239  and  _241
REMARK   87  A    between atoms: _241  and  _242
REMARK   88  A    between atoms: _241  and  _244
REMARK   89  A    between atoms: _244  and  _245
REMARK   90  A    between atoms: _248  and  _250
REMARK   91  A    between atoms: _250  and  _251
REMARK   92  A    between atoms: _253  and  _255
REMARK   93  A    between atoms: _255  and  _256
REMARK   94  A    between atoms: _255  and  _258
REMARK   95  A    between atoms: _258  and  _259
REMARK   96  A    between atoms: _264  and  _265
REMARK   97  A    between atoms: _267  and  _269
REMARK   98  A    between atoms: _269  and  _270
REMARK   99  A    between atoms: _269  and  _272
REMARK  100  A    between atoms: _272  and  _273
REMARK  101  A    between atoms: _283  and  _285
REMARK  102  A    between atoms: _285  and  _286
REMARK  103  A    between atoms: _285  and  _288
REMARK  104  A    between atoms: _288  and  _289
REMARK  105  A    between atoms: _289  and  _290
REMARK  106  A    between atoms: _293  and  _295
REMARK  107  A    between atoms: _295  and  _296
REMARK  108  A    between atoms: _295  and  _298
REMARK  109  A    between atoms: _298  and  _299
REMARK  110  A    between atoms: _305  and  _307
REMARK  111  A    between atoms: _307  and  _308
REMARK  112  A    between atoms: _311  and  _313
REMARK  113  A    between atoms: _313  and  _314
REMARK  114  A    between atoms: _313  and  _316
REMARK  115  A    between atoms: _316  and  _317
REMARK  116  A    between atoms: _323  and  _325
REMARK  117  A    between atoms: _325  and  _326
REMARK  118  A    between atoms: _325  and  _328
REMARK  119  A    between atoms: _328  and  _329
REMARK  120  A    between atoms: _334  and  _336
REMARK  121  A    between atoms: _336  and  _337
REMARK  122  A    between atoms: _336  and  _339
REMARK  123  A    between atoms: _339  and  _340
REMARK  124  A    between atoms: _340  and  _341
REMARK  125  A    between atoms: _344  and  _346
REMARK  126  A    between atoms: _346  and  _347
REMARK  127  A    between atoms: _346  and  _349
REMARK  128  A    between atoms: _349  and  _350
REMARK  129  A    between atoms: _350  and  _351
REMARK  130  A    between atoms: _351  and  _352
REMARK  131  A    between atoms: _352  and  _353
REMARK  132  A    between atoms: _357  and  _359
REMARK  133  A    between atoms: _359  and  _360
REMARK  134  A    between atoms: _359  and  _362
REMARK  135  A    between atoms: _362  and  _363
REMARK  136  A    between atoms: _363  and  _364
REMARK  137  A    between atoms: _367  and  _369
REMARK  138  A    between atoms: _369  and  _370
REMARK  139  A    between atoms: _369  and  _372
REMARK  140  A    between atoms: _372  and  _373
REMARK  141  A    between atoms: _376  and  _378
REMARK  142  A    between atoms: _378  and  _379
REMARK  143  A    between atoms: _378  and  _381
REMARK  144  A    between atoms: _381  and  _382
REMARK                            x       y       z     vdW  Elec       q    Type
REMARK                         _______ _______ _______ _____ _____    ______ ____
ROOT
ATOM      1  CB  ASN A   1      20.243  35.030   4.637  0.00  0.00    +0.110 C 
ENDROOT
BRANCH   1   2
ATOM      2  CG  ASN A   1      19.224  34.685   5.701  0.00  0.00    +0.221 C 
ATOM      3  OD1 ASN A   1      18.980  35.474   6.621  0.00  0.00    -0.275 OA
ATOM      4  ND2 ASN A   1      18.595  33.515   5.568  0.00  0.00    -0.329 N 
ATOM      5 HD21 ASN A   1      17.866  33.235   6.255  0.00  0.00    +0.145 HD
ATOM      6 HD22 ASN A   1      18.834  32.883   4.777  0.00  0.00    +0.145 HD
ENDBRANCH   1   2
BRANCH   1   7
ATOM      7  CA  ASN A   1      19.588  35.363   3.285  0.00  0.00    +0.142 C 
BRANCH   7   8
ATOM      8  N   ASN A   1      20.623  35.683   2.301  0.00  0.00    -0.239 NA
ATOM      9  H   ASN A   1      21.029  36.640   2.269  0.00  0.00    +0.142 HD
ENDBRANCH   7   8
BRANCH   7  10
ATOM     10  C   ASN A   1      18.571  36.468   3.478  0.00  0.00    +0.225 C 
ATOM     11  O   ASN A   1      18.899  37.651   3.401  0.00  0.00    -0.287 OA
ENDBRANCH   7  10
ENDBRANCH   1   7
TORSDOF 4
REMARK  Name = ../refined-set-2016/2bvd/2bvd_pocket.pdb
REMARK  144 active torsions:
REMARK  status: ('A' for Active; 'I' for Inactive)
REMARK    1  A    between atoms: _1  and  _3
REMARK    2  A    between atoms: _3  and  _4
REMARK    3  A    between atoms: _3  and  _6
REMARK    4  A    between atoms: _6  and  _7
REMARK    5  A    between atoms: _17  and  _19
REMARK    6  A    between atoms: _19  and  _20
REMARK    7  A    between atoms: _22  and  _24
REMARK    8  A    between atoms: _24  and  _25
REMARK    9  A    between atoms: _24  and  _27
REMARK   10  A    between atoms: _27  and  _28
REMARK   11  A    between atoms: _31  and  _33
REMARK   12  A    between atoms: _33  and  _34
REMARK   13  A    between atoms: _33  and  _36
REMARK   14  A    between atoms: _36  and  _37
REMARK   15  A    between atoms: _37  and  _38
REMARK   16  A    between atoms: _43  and  _45
REMARK   17  A    between atoms: _45  and  _46
REMARK   18  A    between atoms: _45  and  _48
REMARK   19  A    between atoms: _48  and  _49
REMARK   20  A    between atoms: _54  and  _56
REMARK   21  A    between atoms: _56  and  _57
REMARK   22  A    between atoms: _56  and  _59
REMARK   23  A    between atoms: _59  and  _60
REMARK   24  A    between atoms: _60  and  _61
REMARK   25  A    between atoms: _66  and  _68
REMARK   26  A    between atoms: _68  and  _69
REMARK   27  A    between atoms: _68  and  _71
REMARK   28  A    between atoms: _71  and  _72
REMARK   29  A    between atoms: _78  and  _80
REMARK   30  A    between atoms: _80  and  _81
REMARK   31  A    between atoms: _80  and  _83
REMARK   32  A    between atoms: _83  and  _84
REMARK   33  A    between atoms: _87  and  _89
REMARK   34  A    between atoms: _89  and  _90
REMARK   35  A    between atoms: _89  and  _92
REMARK   36  A    between atoms: _92  and  _93
REMARK   37  A    between atoms: _98  and  _100
REMARK   38  A    between atoms: _100  and  _101
REMARK   39  A    between atoms: _100  and  _103
REMARK   40  A    between atoms: _103  and  _104
REMARK   41  A    between atoms: _107  and  _109
REMARK   42  A    between atoms: _109  and  _110
REMARK   43  A    between atoms: _109  and  _112
REMARK   44  A    between atoms: _112  and  _113
REMARK   45  A    between atoms: _113  and  _114
REMARK   46  A    between atoms: _117  and  _119
REMARK   47  A    between atoms: _119  and  _120
REMARK   48  A    between atoms: _119  and  _122
REMARK   49  A    between atoms: _122  and  _123
REMARK   50  A    between atoms: _133  and  _135
REMARK   51  A    between atoms: _135  and  _136
REMARK   52  A    between atoms: _135  and  _138
REMARK   53  A    between atoms: _138  and  _139
REMARK   54  A    between atoms: _139  and  _140
REMARK   55  A    between atoms: _140  and  _141
REMARK   56  A    between atoms: _150  and  _152
REMARK   57  A    between atoms: _152  and  _153
REMARK   58  A    between atoms: _152  and  _155
REMARK   59  A    between atoms: _155  and  _156
REMARK   60  A    between atoms: _161  and  _163
REMARK   61  A    between atoms: _163  and  _164
REMARK   62  A    between atoms: _163  and  _166
REMARK   63  A    between atoms: _166  and  _167
REMARK   64  A    between atoms: _167  and  _168
REMARK   65  A    between atoms: _171  and  _173
REMARK   66  A    between atoms: _173  and  _174
REMARK   67  A    between atoms: _173  and  _176
REMARK   68  A    between atoms: _176  and  _177
REMARK   69  A    between atoms: _187  and  _189
REMARK   70  A    between atoms: _189  and  _190
REMARK   71  A    between atoms: _189  and  _192
REMARK   72  A    between atoms: _192  and  _193
REMARK   73  A    between atoms: _198  and  _199
REMARK   74  A    between atoms: _201  and  _203
REMARK   75  A    between atoms: _203  and  _204
REMARK   76  A    between atoms: _203  and  _206
REMARK   77  A    between atoms: _206  and  _207
REMARK   78  A    between atoms: _217  and  _219
REMARK   79  A    between atoms: _219  and  _220
REMARK   80  A    between atoms: _219  and  _222
REMARK   81  A    between atoms: _222  and  _223
REMARK   82  A    between atoms: _228  and  _230
REMARK   83  A    between atoms: _230  and  _231
REMARK   84  A    between atoms: _230  and  _233
REMARK   85  A    between atoms: _233  and  _234
REMARK   86  A    between atoms: _239  and  _241
REMARK   87  A    between atoms: _241  and  _242
REMARK   88  A    between atoms: _241  and  _244
REMARK   89  A    between atoms: _244  and  _245
REMARK   90  A    between atoms: _248  and  _250
REMARK   91  A    between atoms: _250  and  _251
REMARK   92  A    between atoms: _253  and  _255
REMARK   93  A    between atoms: _255  and  _256
REMARK   94  A    between atoms: _255  and  _258
REMARK   95  A    between atoms: _258  and  _259
REMARK   96  A    between atoms: _264  and  _265
REMARK   97  A    between atoms: _267  and  _269
REMARK   98  A    between atoms: _269  and  _270
REMARK   99  A    between atoms: _269  and  _272
REMARK  100  A    between atoms: _272  and  _273
REMARK  101  A    between atoms: _283  and  _285
REMARK  102  A    between atoms: _285  and  _286
REMARK  103  A    between atoms: _285  and  _288
REMARK  104  A    between atoms: _288  and  _289
REMARK  105  A    between atoms: _289  and  _290
REMARK  106  A    between atoms: _293  and  _295
REMARK  107  A    between atoms: _295  and  _296
REMARK  108  A    between atoms: _295  and  _298
REMARK  109  A    between atoms: _298  and  _299
REMARK  110  A    between atoms: _305  and  _307
REMARK  111  A    between atoms: _307  and  _308
REMARK  112  A    between atoms: _311  and  _313
REMARK  113  A    between atoms: _313  and  _314
REMARK  114  A    between atoms: _313  and  _316
REMARK  115  A    between atoms: _316  and  _317
REMARK  116  A    between atoms: _323  and  _325
REMARK  117  A    between atoms: _325  and  _326
REMARK  118  A    between atoms: _325  and  _328
REMARK  119  A    between atoms: _328  and  _329
REMARK  120  A    between atoms: _334  and  _336
REMARK  121  A    between atoms: _336  and  _337
REMARK  122  A    between atoms: _336  and  _339
REMARK  123  A    between atoms: _339  and  _340
REMARK  124  A    between atoms: _340  and  _341
REMARK  125  A    between atoms: _344  and  _346
REMARK  126  A    between atoms: _346  and  _347
REMARK  127  A    between atoms: _346  and  _349
REMARK  128  A    between atoms: _349  and  _350
REMARK  129  A    between atoms: _350  and  _351
REMARK  130  A    between atoms: _351  and  _352
REMARK  131  A    between atoms: _352  and  _353
REMARK  132  A    between atoms: _357  and  _359
REMARK  133  A    between atoms: _359  and  _360
REMARK  134  A    between atoms: _359  and  _362
REMARK  135  A    between atoms: _362  and  _363
REMARK  136  A    between atoms: _363  and  _364
REMARK  137  A    between atoms: _367  and  _369
REMARK  138  A    between atoms: _369  and  _370
REMARK  139  A    between atoms: _369  and  _372
REMARK  140  A    between atoms: _372  and  _373
REMARK  141  A    between atoms: _376  and  _378
REMARK  142  A    between atoms: _378  and  _379
REMARK  143  A    between atoms: _378  and  _381
REMARK  144  A    between atoms: _381  and  _382
REMARK                            x       y       z     vdW  Elec       q    Type
REMARK                         _______ _______ _______ _____ _____    ______ ____
ROOT
ATOM      1  CB  ASN A   1      14.140  37.908   8.456  0.00  0.00    +0.110 C 
ENDROOT
BRANCH   1   2
ATOM      2  CG  ASN A   1      13.240  37.480   9.610  0.00  0.00    +0.221 C 
ATOM      3  ND2 ASN A   1      13.615  36.385  10.272  0.00  0.00    -0.329 N 
ATOM      4 HD21 ASN A   1      13.031  36.024  11.054  0.00  0.00    +0.145 HD
ATOM      5 HD22 ASN A   1      14.491  35.891  10.007  0.00  0.00    +0.145 HD
ATOM      6  OD1 ASN A   1      12.200  38.109   9.887  0.00  0.00    -0.275 OA
ENDBRANCH   1   2
BRANCH   1   7
ATOM      7  CA  ASN A   1      14.230  36.843   7.368  0.00  0.00    +0.142 C 
BRANCH   7   8
ATOM      8  N   ASN A   1      15.222  37.210   6.370  0.00  0.00    -0.239 NA
ATOM      9  H   ASN A   1      15.647  38.159   6.401  0.00  0.00    +0.142 HD
ENDBRANCH   7   8
BRANCH   7  10
ATOM     10  C   ASN A   1      12.867  36.694   6.694  0.00  0.00    +0.225 C 
ATOM     11  O   ASN A   1      12.595  37.343   5.687  0.00  0.00    -0.287 OA
ENDBRANCH   7  10
ENDBRANCH   1   7
TORSDOF 4
REMARK  Name = ../refined-set-2016/2bvd/2bvd_pocket.pdb
REMARK  144 active torsions:
REMARK  status: ('A' for Active; 'I' for Inactive)
REMARK    1  A    between atoms: _1  and  _3
REMARK    2  A    between atoms: _3  and  _4
REMARK    3  A    between atoms: _3  and  _6
REMARK    4  A    between atoms: _6  and  _7
REMARK    5  A    between atoms: _17  and  _19
REMARK    6  A    between atoms: _19  and  _20
REMARK    7  A    between atoms: _22  and  _24
REMARK    8  A    between atoms: _24  and  _25
REMARK    9  A    between atoms: _24  and  _27
REMARK   10  A    between atoms: _27  and  _28
REMARK   11  A    between atoms: _31  and  _33
REMARK   12  A    between atoms: _33  and  _34
REMARK   13  A    between atoms: _33  and  _36
REMARK   14  A    between atoms: _36  and  _37
REMARK   15  A    between atoms: _37  and  _38
REMARK   16  A    between atoms: _43  and  _45
REMARK   17  A    between atoms: _45  and  _46
REMARK   18  A    between atoms: _45  and  _48
REMARK   19  A    between atoms: _48  and  _49
REMARK   20  A    between atoms: _54  and  _56
REMARK   21  A    between atoms: _56  and  _57
REMARK   22  A    between atoms: _56  and  _59
REMARK   23  A    between atoms: _59  and  _60
REMARK   24  A    between atoms: _60  and  _61
REMARK   25  A    between atoms: _66  and  _68
REMARK   26  A    between atoms: _68  and  _69
REMARK   27  A    between atoms: _68  and  _71
REMARK   28  A    between atoms: _71  and  _72
REMARK   29  A    between atoms: _78  and  _80
REMARK   30  A    between atoms: _80  and  _81
REMARK   31  A    between atoms: _80  and  _83
REMARK   32  A    between atoms: _83  and  _84
REMARK   33  A    between atoms: _87  and  _89
REMARK   34  A    between atoms: _89  and  _90
REMARK   35  A    between atoms: _89  and  _92
REMARK   36  A    between atoms: _92  and  _93
REMARK   37  A    between atoms: _98  and  _100
REMARK   38  A    between atoms: _100  and  _101
REMARK   39  A    between atoms: _100  and  _103
REMARK   40  A    between atoms: _103  and  _104
REMARK   41  A    between atoms: _107  and  _109
REMARK   42  A    between atoms: _109  and  _110
REMARK   43  A    between atoms: _109  and  _112
REMARK   44  A    between atoms: _112  and  _113
REMARK   45  A    between atoms: _113  and  _114
REMARK   46  A    between atoms: _117  and  _119
REMARK   47  A    between atoms: _119  and  _120
REMARK   48  A    between atoms: _119  and  _122
REMARK   49  A    between atoms: _122  and  _123
REMARK   50  A    between atoms: _133  and  _135
REMARK   51  A    between atoms: _135  and  _136
REMARK   52  A    between atoms: _135  and  _138
REMARK   53  A    between atoms: _138  and  _139
REMARK   54  A    between atoms: _139  and  _140
REMARK   55  A    between atoms: _140  and  _141
REMARK   56  A    between atoms: _150  and  _152
REMARK   57  A    between atoms: _152  and  _153
REMARK   58  A    between atoms: _152  and  _155
REMARK   59  A    between atoms: _155  and  _156
REMARK   60  A    between atoms: _161  and  _163
REMARK   61  A    between atoms: _163  and  _164
REMARK   62  A    between atoms: _163  and  _166
REMARK   63  A    between atoms: _166  and  _167
REMARK   64  A    between atoms: _167  and  _168
REMARK   65  A    between atoms: _171  and  _173
REMARK   66  A    between atoms: _173  and  _174
REMARK   67  A    between atoms: _173  and  _176
REMARK   68  A    between atoms: _176  and  _177
REMARK   69  A    between atoms: _187  and  _189
REMARK   70  A    between atoms: _189  and  _190
REMARK   71  A    between atoms: _189  and  _192
REMARK   72  A    between atoms: _192  and  _193
REMARK   73  A    between atoms: _198  and  _199
REMARK   74  A    between atoms: _201  and  _203
REMARK   75  A    between atoms: _203  and  _204
REMARK   76  A    between atoms: _203  and  _206
REMARK   77  A    between atoms: _206  and  _207
REMARK   78  A    between atoms: _217  and  _219
REMARK   79  A    between atoms: _219  and  _220
REMARK   80  A    between atoms: _219  and  _222
REMARK   81  A    between atoms: _222  and  _223
REMARK   82  A    between atoms: _228  and  _230
REMARK   83  A    between atoms: _230  and  _231
REMARK   84  A    between atoms: _230  and  _233
REMARK   85  A    between atoms: _233  and  _234
REMARK   86  A    between atoms: _239  and  _241
REMARK   87  A    between atoms: _241  and  _242
REMARK   88  A    between atoms: _241  and  _244
REMARK   89  A    between atoms: _244  and  _245
REMARK   90  A    between atoms: _248  and  _250
REMARK   91  A    between atoms: _250  and  _251
REMARK   92  A    between atoms: _253  and  _255
REMARK   93  A    between atoms: _255  and  _256
REMARK   94  A    between atoms: _255  and  _258
REMARK   95  A    between atoms: _258  and  _259
REMARK   96  A    between atoms: _264  and  _265
REMARK   97  A    between atoms: _267  and  _269
REMARK   98  A    between atoms: _269  and  _270
REMARK   99  A    between atoms: _269  and  _272
REMARK  100  A    between atoms: _272  and  _273
REMARK  101  A    between atoms: _283  and  _285
REMARK  102  A    between atoms: _285  and  _286
REMARK  103  A    between atoms: _285  and  _288
REMARK  104  A    between atoms: _288  and  _289
REMARK  105  A    between atoms: _289  and  _290
REMARK  106  A    between atoms: _293  and  _295
REMARK  107  A    between atoms: _295  and  _296
REMARK  108  A    between atoms: _295  and  _298
REMARK  109  A    between atoms: _298  and  _299
REMARK  110  A    between atoms: _305  and  _307
REMARK  111  A    between atoms: _307  and  _308
REMARK  112  A    between atoms: _311  and  _313
REMARK  113  A    between atoms: _313  and  _314
REMARK  114  A    between atoms: _313  and  _316
REMARK  115  A    between atoms: _316  and  _317
REMARK  116  A    between atoms: _323  and  _325
REMARK  117  A    between atoms: _325  and  _326
REMARK  118  A    between atoms: _325  and  _328
REMARK  119  A    between atoms: _328  and  _329
REMARK  120  A    between atoms: _334  and  _336
REMARK  121  A    between atoms: _336  and  _337
REMARK  122  A    between atoms: _336  and  _339
REMARK  123  A    between atoms: _339  and  _340
REMARK  124  A    between atoms: _340  and  _341
REMARK  125  A    between atoms: _344  and  _346
REMARK  126  A    between atoms: _346  and  _347
REMARK  127  A    between atoms: _346  and  _349
REMARK  128  A    between atoms: _349  and  _350
REMARK  129  A    between atoms: _350  and  _351
REMARK  130  A    between atoms: _351  and  _352
REMARK  131  A    between atoms: _352  and  _353
REMARK  132  A    between atoms: _357  and  _359
REMARK  133  A    between atoms: _359  and  _360
REMARK  134  A    between atoms: _359  and  _362
REMARK  135  A    between atoms: _362  and  _363
REMARK  136  A    between atoms: _363  and  _364
REMARK  137  A    between atoms: _367  and  _369
REMARK  138  A    between atoms: _369  and  _370
REMARK  139  A    between atoms: _369  and  _372
REMARK  140  A    between atoms: _372  and  _373
REMARK  141  A    between atoms: _376  and  _378
REMARK  142  A    between atoms: _378  and  _379
REMARK  143  A    between atoms: _378  and  _381
REMARK  144  A    between atoms: _381  and  _382
REMARK                            x       y       z     vdW  Elec       q    Type
REMARK                         _______ _______ _______ _____ _____    ______ ____
ROOT
ATOM      1  C   GLY A   2      11.183  30.873  11.137  0.00  0.00    +0.243 C 
ATOM      2  N   TYR A   3      10.416  31.406  12.079  0.00  0.00    -0.298 N 
ATOM      3  H   TYR A   3      10.054  32.371  11.939  0.00  0.00    +0.150 HD
ATOM      4  O   GLY A   2      11.534  29.704  11.117  0.00  0.00    -0.273 OA
ENDROOT
BRANCH   1   5
ATOM      5  CA  GLY A   2      11.585  31.819  10.035  0.00  0.00    +0.176 C 
BRANCH   5   7
ATOM      6  C   ASP A   1      13.463  32.389   8.647  0.00  0.00    +0.239 C 
ATOM      7  N   GLY A   2      12.922  31.557   9.524  0.00  0.00    -0.296 N 
ATOM      8  H   GLY A   2      13.450  30.721   9.846  0.00  0.00    +0.150 HD
ATOM      9  O   ASP A   1      12.891  33.411   8.265  0.00  0.00    -0.274 OA
BRANCH   6  10
ATOM     10  CA  ASP A   1      14.866  32.057   8.170  0.00  0.00    +0.156 C 
BRANCH  10  11
ATOM     11  N   ASP A   1      14.978  32.435   6.763  0.00  0.00    -0.238 NA
ATOM     12  H   ASP A   1      14.913  33.443   6.516  0.00  0.00    +0.142 HD
ENDBRANCH  10  11
BRANCH  10  13
ATOM     13  CB  ASP A   1      15.855  32.848   9.035  0.00  0.00    +0.140 C 
BRANCH  13  14
ATOM     14  CG  ASP A   1      17.304  32.537   8.722  0.00  0.00    +0.367 C 
ATOM     15  OD2 ASP A   1      18.177  33.156   9.363  0.00  0.00    -0.246 OA
ATOM     16  OD1 ASP A   1      17.595  31.688   7.848  0.00  0.00    -0.246 OA
ENDBRANCH  13  14
ENDBRANCH  10  13
ENDBRANCH   6  10
ENDBRANCH   5   7
ENDBRANCH   1   5
BRANCH   2  17
ATOM     17  CA  TYR A   3      10.060  30.702  13.295  0.00  0.00    +0.141 C 
BRANCH  17  18
ATOM     18  C   TYR A   3       8.573  30.829  13.569  0.00  0.00    +0.227 C 
ATOM     19  O   TYR A   3       7.983  31.909  13.389  0.00  0.00    -0.286 OA
ENDBRANCH  17  18
BRANCH  17  20
ATOM     20  CB  TYR A   3      10.850  31.301  14.474  0.00  0.00    +0.054 C 
BRANCH  20  21
ATOM     21  CG  TYR A   3      12.330  31.002  14.410  0.00  0.00    -0.020 A 
ATOM     22  CD2 TYR A   3      12.883  29.986  15.193  0.00  0.00    -0.001 A 
ATOM     23  CE2 TYR A   3      14.236  29.690  15.139  0.00  0.00    +0.036 A 
ATOM     24  CZ  TYR A   3      15.067  30.398  14.285  0.00  0.00    +0.134 A 
ATOM     25  CE1 TYR A   3      14.562  31.418  13.487  0.00  0.00    +0.036 A 
ATOM     26  CD1 TYR A   3      13.181  31.717  13.556  0.00  0.00    -0.001 A 
BRANCH  24  27
ATOM     27  OH  TYR A   3      16.404  30.093  14.242  0.00  0.00    -0.506 OA
ATOM     28  HH  TYR A   3      16.931  30.888  14.506  0.00  0.00    +0.292 HD
ENDBRANCH  24  27
ENDBRANCH  20  21
ENDBRANCH  17  20
ENDBRANCH   2  17
TORSDOF 11
REMARK  Name = ../refined-set-2016/2bvd/2bvd_pocket.pdb
REMARK  144 active torsions:
REMARK  status: ('A' for Active; 'I' for Inactive)
REMARK    1  A    between atoms: _1  and  _3
REMARK    2  A    between atoms: _3  and  _4
REMARK    3  A    between atoms: _3  and  _6
REMARK    4  A    between atoms: _6  and  _7
REMARK    5  A    between atoms: _17  and  _19
REMARK    6  A    between atoms: _19  and  _20
REMARK    7  A    between atoms: _22  and  _24
REMARK    8  A    between atoms: _24  and  _25
REMARK    9  A    between atoms: _24  and  _27
REMARK   10  A    between atoms: _27  and  _28
REMARK   11  A    between atoms: _31  and  _33
REMARK   12  A    between atoms: _33  and  _34
REMARK   13  A    between atoms: _33  and  _36
REMARK   14  A    between atoms: _36  and  _37
REMARK   15  A    between atoms: _37  and  _38
REMARK   16  A    between atoms: _43  and  _45
REMARK   17  A    between atoms: _45  and  _46
REMARK   18  A    between atoms: _45  and  _48
REMARK   19  A    between atoms: _48  and  _49
REMARK   20  A    between atoms: _54  and  _56
REMARK   21  A    between atoms: _56  and  _57
REMARK   22  A    between atoms: _56  and  _59
REMARK   23  A    between atoms: _59  and  _60
REMARK   24  A    between atoms: _60  and  _61
REMARK   25  A    between atoms: _66  and  _68
REMARK   26  A    between atoms: _68  and  _69
REMARK   27  A    between atoms: _68  and  _71
REMARK   28  A    between atoms: _71  and  _72
REMARK   29  A    between atoms: _78  and  _80
REMARK   30  A    between atoms: _80  and  _81
REMARK   31  A    between atoms: _80  and  _83
REMARK   32  A    between atoms: _83  and  _84
REMARK   33  A    between atoms: _87  and  _89
REMARK   34  A    between atoms: _89  and  _90
REMARK   35  A    between atoms: _89  and  _92
REMARK   36  A    between atoms: _92  and  _93
REMARK   37  A    between atoms: _98  and  _100
REMARK   38  A    between atoms: _100  and  _101
REMARK   39  A    between atoms: _100  and  _103
REMARK   40  A    between atoms: _103  and  _104
REMARK   41  A    between atoms: _107  and  _109
REMARK   42  A    between atoms: _109  and  _110
REMARK   43  A    between atoms: _109  and  _112
REMARK   44  A    between atoms: _112  and  _113
REMARK   45  A    between atoms: _113  and  _114
REMARK   46  A    between atoms: _117  and  _119
REMARK   47  A    between atoms: _119  and  _120
REMARK   48  A    between atoms: _119  and  _122
REMARK   49  A    between atoms: _122  and  _123
REMARK   50  A    between atoms: _133  and  _135
REMARK   51  A    between atoms: _135  and  _136
REMARK   52  A    between atoms: _135  and  _138
REMARK   53  A    between atoms: _138  and  _139
REMARK   54  A    between atoms: _139  and  _140
REMARK   55  A    between atoms: _140  and  _141
REMARK   56  A    between atoms: _150  and  _152
REMARK   57  A    between atoms: _152  and  _153
REMARK   58  A    between atoms: _152  and  _155
REMARK   59  A    between atoms: _155  and  _156
REMARK   60  A    between atoms: _161  and  _163
REMARK   61  A    between atoms: _163  and  _164
REMARK   62  A    between atoms: _163  and  _166
REMARK   63  A    between atoms: _166  and  _167
REMARK   64  A    between atoms: _167  and  _168
REMARK   65  A    between atoms: _171  and  _173
REMARK   66  A    between atoms: _173  and  _174
REMARK   67  A    between atoms: _173  and  _176
REMARK   68  A    between atoms: _176  and  _177
REMARK   69  A    between atoms: _187  and  _189
REMARK   70  A    between atoms: _189  and  _190
REMARK   71  A    between atoms: _189  and  _192
REMARK   72  A    between atoms: _192  and  _193
REMARK   73  A    between atoms: _198  and  _199
REMARK   74  A    between atoms: _201  and  _203
REMARK   75  A    between atoms: _203  and  _204
REMARK   76  A    between atoms: _203  and  _206
REMARK   77  A    between atoms: _206  and  _207
REMARK   78  A    between atoms: _217  and  _219
REMARK   79  A    between atoms: _219  and  _220
REMARK   80  A    between atoms: _219  and  _222
REMARK   81  A    between atoms: _222  and  _223
REMARK   82  A    between atoms: _228  and  _230
REMARK   83  A    between atoms: _230  and  _231
REMARK   84  A    between atoms: _230  and  _233
REMARK   85  A    between atoms: _233  and  _234
REMARK   86  A    between atoms: _239  and  _241
REMARK   87  A    between atoms: _241  and  _242
REMARK   88  A    between atoms: _241  and  _244
REMARK   89  A    between atoms: _244  and  _245
REMARK   90  A    between atoms: _248  and  _250
REMARK   91  A    between atoms: _250  and  _251
REMARK   92  A    between atoms: _253  and  _255
REMARK   93  A    between atoms: _255  and  _256
REMARK   94  A    between atoms: _255  and  _258
REMARK   95  A    between atoms: _258  and  _259
REMARK   96  A    between atoms: _264  and  _265
REMARK   97  A    between atoms: _267  and  _269
REMARK   98  A    between atoms: _269  and  _270
REMARK   99  A    between atoms: _269  and  _272
REMARK  100  A    between atoms: _272  and  _273
REMARK  101  A    between atoms: _283  and  _285
REMARK  102  A    between atoms: _285  and  _286
REMARK  103  A    between atoms: _285  and  _288
REMARK  104  A    between atoms: _288  and  _289
REMARK  105  A    between atoms: _289  and  _290
REMARK  106  A    between atoms: _293  and  _295
REMARK  107  A    between atoms: _295  and  _296
REMARK  108  A    between atoms: _295  and  _298
REMARK  109  A    between atoms: _298  and  _299
REMARK  110  A    between atoms: _305  and  _307
REMARK  111  A    between atoms: _307  and  _308
REMARK  112  A    between atoms: _311  and  _313
REMARK  113  A    between atoms: _313  and  _314
REMARK  114  A    between atoms: _313  and  _316
REMARK  115  A    between atoms: _316  and  _317
REMARK  116  A    between atoms: _323  and  _325
REMARK  117  A    between atoms: _325  and  _326
REMARK  118  A    between atoms: _325  and  _328
REMARK  119  A    between atoms: _328  and  _329
REMARK  120  A    between atoms: _334  and  _336
REMARK  121  A    between atoms: _336  and  _337
REMARK  122  A    between atoms: _336  and  _339
REMARK  123  A    between atoms: _339  and  _340
REMARK  124  A    between atoms: _340  and  _341
REMARK  125  A    between atoms: _344  and  _346
REMARK  126  A    between atoms: _346  and  _347
REMARK  127  A    between atoms: _346  and  _349
REMARK  128  A    between atoms: _349  and  _350
REMARK  129  A    between atoms: _350  and  _351
REMARK  130  A    between atoms: _351  and  _352
REMARK  131  A    between atoms: _352  and  _353
REMARK  132  A    between atoms: _357  and  _359
REMARK  133  A    between atoms: _359  and  _360
REMARK  134  A    between atoms: _359  and  _362
REMARK  135  A    between atoms: _362  and  _363
REMARK  136  A    between atoms: _363  and  _364
REMARK  137  A    between atoms: _367  and  _369
REMARK  138  A    between atoms: _369  and  _370
REMARK  139  A    between atoms: _369  and  _372
REMARK  140  A    between atoms: _372  and  _373
REMARK  141  A    between atoms: _376  and  _378
REMARK  142  A    between atoms: _378  and  _379
REMARK  143  A    between atoms: _378  and  _381
REMARK  144  A    between atoms: _381  and  _382
REMARK                            x       y       z     vdW  Elec       q    Type
REMARK                         _______ _______ _______ _____ _____    ______ ____
ROOT
ATOM      1  CG  TRP A   1       7.988  33.746  17.262  0.00  0.00    -0.002 A 
ATOM      2  CD2 TRP A   1       9.252  34.015  17.869  0.00  0.00    +0.013 A 
ATOM      3  CE3 TRP A   1       9.747  33.895  19.177  0.00  0.00    +0.001 A 
ATOM      4  CZ3 TRP A   1      11.069  34.273  19.432  0.00  0.00    +0.000 A 
ATOM      5  CH2 TRP A   1      11.898  34.755  18.399  0.00  0.00    +0.001 A 
ATOM      6  CZ2 TRP A   1      11.442  34.878  17.111  0.00  0.00    +0.017 A 
ATOM      7  CE2 TRP A   1      10.111  34.509  16.854  0.00  0.00    +0.056 A 
ATOM      8  NE1 TRP A   1       9.394  34.528  15.684  0.00  0.00    -0.352 N 
ATOM      9  HE1 TRP A   1       9.751  34.843  14.760  0.00  0.00    +0.166 HD
ATOM     10  CD1 TRP A   1       8.123  34.061  15.936  0.00  0.00    +0.068 A 
ENDROOT
BRANCH   1  11
ATOM     11  CB  TRP A   1       6.772  33.206  17.943  0.00  0.00    +0.053 C 
BRANCH  11  12
ATOM     12  CA  TRP A   1       6.692  31.683  17.868  0.00  0.00    +0.137 C 
BRANCH  12  13
ATOM     13  N   TRP A   1       6.528  31.278  16.475  0.00  0.00    -0.239 NA
ATOM     14  H   TRP A   1       6.196  31.981  15.784  0.00  0.00    +0.142 HD
ENDBRANCH  12  13
BRANCH  12  15
ATOM     15  C   TRP A   1       5.560  31.189  18.768  0.00  0.00    +0.224 C 
ATOM     16  O   TRP A   1       5.648  31.304  19.991  0.00  0.00    -0.287 OA
ENDBRANCH  12  15
ENDBRANCH  11  12
ENDBRANCH   1  11
TORSDOF 4
REMARK  Name = ../refined-set-2016/2bvd/2bvd_pocket.pdb
REMARK  144 active torsions:
REMARK  status: ('A' for Active; 'I' for Inactive)
REMARK    1  A    between atoms: _1  and  _3
REMARK    2  A    between atoms: _3  and  _4
REMARK    3  A    between atoms: _3  and  _6
REMARK    4  A    between atoms: _6  and  _7
REMARK    5  A    between atoms: _17  and  _19
REMARK    6  A    between atoms: _19  and  _20
REMARK    7  A    between atoms: _22  and  _24
REMARK    8  A    between atoms: _24  and  _25
REMARK    9  A    between atoms: _24  and  _27
REMARK   10  A    between atoms: _27  and  _28
REMARK   11  A    between atoms: _31  and  _33
REMARK   12  A    between atoms: _33  and  _34
REMARK   13  A    between atoms: _33  and  _36
REMARK   14  A    between atoms: _36  and  _37
REMARK   15  A    between atoms: _37  and  _38
REMARK   16  A    between atoms: _43  and  _45
REMARK   17  A    between atoms: _45  and  _46
REMARK   18  A    between atoms: _45  and  _48
REMARK   19  A    between atoms: _48  and  _49
REMARK   20  A    between atoms: _54  and  _56
REMARK   21  A    between atoms: _56  and  _57
REMARK   22  A    between atoms: _56  and  _59
REMARK   23  A    between atoms: _59  and  _60
REMARK   24  A    between atoms: _60  and  _61
REMARK   25  A    between atoms: _66  and  _68
REMARK   26  A    between atoms: _68  and  _69
REMARK   27  A    between atoms: _68  and  _71
REMARK   28  A    between atoms: _71  and  _72
REMARK   29  A    between atoms: _78  and  _80
REMARK   30  A    between atoms: _80  and  _81
REMARK   31  A    between atoms: _80  and  _83
REMARK   32  A    between atoms: _83  and  _84
REMARK   33  A    between atoms: _87  and  _89
REMARK   34  A    between atoms: _89  and  _90
REMARK   35  A    between atoms: _89  and  _92
REMARK   36  A    between atoms: _92  and  _93
REMARK   37  A    between atoms: _98  and  _100
REMARK   38  A    between atoms: _100  and  _101
REMARK   39  A    between atoms: _100  and  _103
REMARK   40  A    between atoms: _103  and  _104
REMARK   41  A    between atoms: _107  and  _109
REMARK   42  A    between atoms: _109  and  _110
REMARK   43  A    between atoms: _109  and  _112
REMARK   44  A    between atoms: _112  and  _113
REMARK   45  A    between atoms: _113  and  _114
REMARK   46  A    between atoms: _117  and  _119
REMARK   47  A    between atoms: _119  and  _120
REMARK   48  A    between atoms: _119  and  _122
REMARK   49  A    between atoms: _122  and  _123
REMARK   50  A    between atoms: _133  and  _135
REMARK   51  A    between atoms: _135  and  _136
REMARK   52  A    between atoms: _135  and  _138
REMARK   53  A    between atoms: _138  and  _139
REMARK   54  A    between atoms: _139  and  _140
REMARK   55  A    between atoms: _140  and  _141
REMARK   56  A    between atoms: _150  and  _152
REMARK   57  A    between atoms: _152  and  _153
REMARK   58  A    between atoms: _152  and  _155
REMARK   59  A    between atoms: _155  and  _156
REMARK   60  A    between atoms: _161  and  _163
REMARK   61  A    between atoms: _163  and  _164
REMARK   62  A    between atoms: _163  and  _166
REMARK   63  A    between atoms: _166  and  _167
REMARK   64  A    between atoms: _167  and  _168
REMARK   65  A    between atoms: _171  and  _173
REMARK   66  A    between atoms: _173  and  _174
REMARK   67  A    between atoms: _173  and  _176
REMARK   68  A    between atoms: _176  and  _177
REMARK   69  A    between atoms: _187  and  _189
REMARK   70  A    between atoms: _189  and  _190
REMARK   71  A    between atoms: _189  and  _192
REMARK   72  A    between atoms: _192  and  _193
REMARK   73  A    between atoms: _198  and  _199
REMARK   74  A    between atoms: _201  and  _203
REMARK   75  A    between atoms: _203  and  _204
REMARK   76  A    between atoms: _203  and  _206
REMARK   77  A    between atoms: _206  and  _207
REMARK   78  A    between atoms: _217  and  _219
REMARK   79  A    between atoms: _219  and  _220
REMARK   80  A    between atoms: _219  and  _222
REMARK   81  A    between atoms: _222  and  _223
REMARK   82  A    between atoms: _228  and  _230
REMARK   83  A    between atoms: _230  and  _231
REMARK   84  A    between atoms: _230  and  _233
REMARK   85  A    between atoms: _233  and  _234
REMARK   86  A    between atoms: _239  and  _241
REMARK   87  A    between atoms: _241  and  _242
REMARK   88  A    between atoms: _241  and  _244
REMARK   89  A    between atoms: _244  and  _245
REMARK   90  A    between atoms: _248  and  _250
REMARK   91  A    between atoms: _250  and  _251
REMARK   92  A    between atoms: _253  and  _255
REMARK   93  A    between atoms: _255  and  _256
REMARK   94  A    between atoms: _255  and  _258
REMARK   95  A    between atoms: _258  and  _259
REMARK   96  A    between atoms: _264  and  _265
REMARK   97  A    between atoms: _267  and  _269
REMARK   98  A    between atoms: _269  and  _270
REMARK   99  A    between atoms: _269  and  _272
REMARK  100  A    between atoms: _272  and  _273
REMARK  101  A    between atoms: _283  and  _285
REMARK  102  A    between atoms: _285  and  _286
REMARK  103  A    between atoms: _285  and  _288
REMARK  104  A    between atoms: _288  and  _289
REMARK  105  A    between atoms: _289  and  _290
REMARK  106  A    between atoms: _293  and  _295
REMARK  107  A    between atoms: _295  and  _296
REMARK  108  A    between atoms: _295  and  _298
REMARK  109  A    between atoms: _298  and  _299
REMARK  110  A    between atoms: _305  and  _307
REMARK  111  A    between atoms: _307  and  _308
REMARK  112  A    between atoms: _311  and  _313
REMARK  113  A    between atoms: _313  and  _314
REMARK  114  A    between atoms: _313  and  _316
REMARK  115  A    between atoms: _316  and  _317
REMARK  116  A    between atoms: _323  and  _325
REMARK  117  A    between atoms: _325  and  _326
REMARK  118  A    between atoms: _325  and  _328
REMARK  119  A    between atoms: _328  and  _329
REMARK  120  A    between atoms: _334  and  _336
REMARK  121  A    between atoms: _336  and  _337
REMARK  122  A    between atoms: _336  and  _339
REMARK  123  A    between atoms: _339  and  _340
REMARK  124  A    between atoms: _340  and  _341
REMARK  125  A    between atoms: _344  and  _346
REMARK  126  A    between atoms: _346  and  _347
REMARK  127  A    between atoms: _346  and  _349
REMARK  128  A    between atoms: _349  and  _350
REMARK  129  A    between atoms: _350  and  _351
REMARK  130  A    between atoms: _351  and  _352
REMARK  131  A    between atoms: _352  and  _353
REMARK  132  A    between atoms: _357  and  _359
REMARK  133  A    between atoms: _359  and  _360
REMARK  134  A    between atoms: _359  and  _362
REMARK  135  A    between atoms: _362  and  _363
REMARK  136  A    between atoms: _363  and  _364
REMARK  137  A    between atoms: _367  and  _369
REMARK  138  A    between atoms: _369  and  _370
REMARK  139  A    between atoms: _369  and  _372
REMARK  140  A    between atoms: _372  and  _373
REMARK  141  A    between atoms: _376  and  _378
REMARK  142  A    between atoms: _378  and  _379
REMARK  143  A    between atoms: _378  and  _381
REMARK  144  A    between atoms: _381  and  _382
REMARK                            x       y       z     vdW  Elec       q    Type
REMARK                         _______ _______ _______ _____ _____    ______ ____
ROOT
ATOM      1  CA  PHE A   2      13.503  27.248  11.194  0.00  0.00    +0.153 C 
ENDROOT
BRANCH   1   3
ATOM      2  C   GLU A   1      15.426  28.354  10.233  0.00  0.00    +0.238 C 
ATOM      3  N   PHE A   2      14.930  27.308  10.877  0.00  0.00    -0.297 N 
ATOM      4  H   PHE A   2      15.557  26.527  11.158  0.00  0.00    +0.150 HD
ATOM      5  O   GLU A   1      14.718  29.198   9.674  0.00  0.00    -0.274 OA
BRANCH   2   6
ATOM      6  CA  GLU A   1      16.929  28.477  10.203  0.00  0.00    +0.145 C 
BRANCH   6   7
ATOM      7  N   GLU A   1      17.338  28.585   8.800  0.00  0.00    -0.238 NA
ATOM      8  H   GLU A   1      16.712  29.085   8.137  0.00  0.00    +0.142 HD
ENDBRANCH   6   7
BRANCH   6   9
ATOM      9  CB  GLU A   1      17.269  29.728  11.012  0.00  0.00    +0.038 C 
BRANCH   9  10
ATOM     10  CG  GLU A   1      18.737  30.103  11.110  0.00  0.00    +0.116 C 
BRANCH  10  11
ATOM     11  CD  GLU A   1      18.945  31.322  11.996  0.00  0.00    +0.365 C 
ATOM     12  OE2 GLU A   1      18.086  31.578  12.871  0.00  0.00    -0.246 OA
ATOM     13  OE1 GLU A   1      19.945  32.038  11.804  0.00  0.00    -0.246 OA
ENDBRANCH  10  11
ENDBRANCH   9  10
ENDBRANCH   6   9
ENDBRANCH   2   6
ENDBRANCH   1   3
BRANCH   1  14
ATOM     14  C   PHE A   2      13.269  26.390  12.406  0.00  0.00    +0.241 C 
ATOM     15  N   ALA A   3      12.162  26.679  13.086  0.00  0.00    -0.298 N 
ATOM     16  H   ALA A   3      11.590  27.497  12.794  0.00  0.00    +0.150 HD
ATOM     17  O   PHE A   2      14.084  25.516  12.733  0.00  0.00    -0.273 OA
BRANCH  15  18
ATOM     18  CA  ALA A   3      11.728  25.883  14.227  0.00  0.00    +0.137 C 
ATOM     19  CB  ALA A   3      12.721  26.039  15.396  0.00  0.00    +0.030 C 
BRANCH  18  20
ATOM     20  C   ALA A   3      10.348  26.347  14.650  0.00  0.00    +0.227 C 
ATOM     21  O   ALA A   3       9.849  27.356  14.147  0.00  0.00    -0.286 OA
ENDBRANCH  18  20
ENDBRANCH  15  18
ENDBRANCH   1  14
BRANCH   1  22
ATOM     22  CB  PHE A   2      12.637  26.825   9.984  0.00  0.00    +0.055 C 
BRANCH  22  23
ATOM     23  CG  PHE A   2      12.608  25.348   9.681  0.00  0.00    -0.020 A 
ATOM     24  CD2 PHE A   2      11.383  24.685   9.596  0.00  0.00    -0.004 A 
ATOM     25  CE2 PHE A   2      11.328  23.323   9.271  0.00  0.00    -0.000 A 
ATOM     26  CZ  PHE A   2      12.510  22.613   9.013  0.00  0.00    -0.000 A 
ATOM     27  CE1 PHE A   2      13.733  23.272   9.076  0.00  0.00    -0.000 A 
ATOM     28  CD1 PHE A   2      13.775  24.635   9.392  0.00  0.00    -0.004 A 
ENDBRANCH  22  23
ENDBRANCH   1  22
TORSDOF 11
REMARK  Name = ../refined-set-2016/2bvd/2bvd_pocket.pdb
REMARK  144 active torsions:
REMARK  status: ('A' for Active; 'I' for Inactive)
REMARK    1  A    between atoms: _1  and  _3
REMARK    2  A    between atoms: _3  and  _4
REMARK    3  A    between atoms: _3  and  _6
REMARK    4  A    between atoms: _6  and  _7
REMARK    5  A    between atoms: _17  and  _19
REMARK    6  A    between atoms: _19  and  _20
REMARK    7  A    between atoms: _22  and  _24
REMARK    8  A    between atoms: _24  and  _25
REMARK    9  A    between atoms: _24  and  _27
REMARK   10  A    between atoms: _27  and  _28
REMARK   11  A    between atoms: _31  and  _33
REMARK   12  A    between atoms: _33  and  _34
REMARK   13  A    between atoms: _33  and  _36
REMARK   14  A    between atoms: _36  and  _37
REMARK   15  A    between atoms: _37  and  _38
REMARK   16  A    between atoms: _43  and  _45
REMARK   17  A    between atoms: _45  and  _46
REMARK   18  A    between atoms: _45  and  _48
REMARK   19  A    between atoms: _48  and  _49
REMARK   20  A    between atoms: _54  and  _56
REMARK   21  A    between atoms: _56  and  _57
REMARK   22  A    between atoms: _56  and  _59
REMARK   23  A    between atoms: _59  and  _60
REMARK   24  A    between atoms: _60  and  _61
REMARK   25  A    between atoms: _66  and  _68
REMARK   26  A    between atoms: _68  and  _69
REMARK   27  A    between atoms: _68  and  _71
REMARK   28  A    between atoms: _71  and  _72
REMARK   29  A    between atoms: _78  and  _80
REMARK   30  A    between atoms: _80  and  _81
REMARK   31  A    between atoms: _80  and  _83
REMARK   32  A    between atoms: _83  and  _84
REMARK   33  A    between atoms: _87  and  _89
REMARK   34  A    between atoms: _89  and  _90
REMARK   35  A    between atoms: _89  and  _92
REMARK   36  A    between atoms: _92  and  _93
REMARK   37  A    between atoms: _98  and  _100
REMARK   38  A    between atoms: _100  and  _101
REMARK   39  A    between atoms: _100  and  _103
REMARK   40  A    between atoms: _103  and  _104
REMARK   41  A    between atoms: _107  and  _109
REMARK   42  A    between atoms: _109  and  _110
REMARK   43  A    between atoms: _109  and  _112
REMARK   44  A    between atoms: _112  and  _113
REMARK   45  A    between atoms: _113  and  _114
REMARK   46  A    between atoms: _117  and  _119
REMARK   47  A    between atoms: _119  and  _120
REMARK   48  A    between atoms: _119  and  _122
REMARK   49  A    between atoms: _122  and  _123
REMARK   50  A    between atoms: _133  and  _135
REMARK   51  A    between atoms: _135  and  _136
REMARK   52  A    between atoms: _135  and  _138
REMARK   53  A    between atoms: _138  and  _139
REMARK   54  A    between atoms: _139  and  _140
REMARK   55  A    between atoms: _140  and  _141
REMARK   56  A    between atoms: _150  and  _152
REMARK   57  A    between atoms: _152  and  _153
REMARK   58  A    between atoms: _152  and  _155
REMARK   59  A    between atoms: _155  and  _156
REMARK   60  A    between atoms: _161  and  _163
REMARK   61  A    between atoms: _163  and  _164
REMARK   62  A    between atoms: _163  and  _166
REMARK   63  A    between atoms: _166  and  _167
REMARK   64  A    between atoms: _167  and  _168
REMARK   65  A    between atoms: _171  and  _173
REMARK   66  A    between atoms: _173  and  _174
REMARK   67  A    between atoms: _173  and  _176
REMARK   68  A    between atoms: _176  and  _177
REMARK   69  A    between atoms: _187  and  _189
REMARK   70  A    between atoms: _189  and  _190
REMARK   71  A    between atoms: _189  and  _192
REMARK   72  A    between atoms: _192  and  _193
REMARK   73  A    between atoms: _198  and  _199
REMARK   74  A    between atoms: _201  and  _203
REMARK   75  A    between atoms: _203  and  _204
REMARK   76  A    between atoms: _203  and  _206
REMARK   77  A    between atoms: _206  and  _207
REMARK   78  A    between atoms: _217  and  _219
REMARK   79  A    between atoms: _219  and  _220
REMARK   80  A    between atoms: _219  and  _222
REMARK   81  A    between atoms: _222  and  _223
REMARK   82  A    between atoms: _228  and  _230
REMARK   83  A    between atoms: _230  and  _231
REMARK   84  A    between atoms: _230  and  _233
REMARK   85  A    between atoms: _233  and  _234
REMARK   86  A    between atoms: _239  and  _241
REMARK   87  A    between atoms: _241  and  _242
REMARK   88  A    between atoms: _241  and  _244
REMARK   89  A    between atoms: _244  and  _245
REMARK   90  A    between atoms: _248  and  _250
REMARK   91  A    between atoms: _250  and  _251
REMARK   92  A    between atoms: _253  and  _255
REMARK   93  A    between atoms: _255  and  _256
REMARK   94  A    between atoms: _255  and  _258
REMARK   95  A    between atoms: _258  and  _259
REMARK   96  A    between atoms: _264  and  _265
REMARK   97  A    between atoms: _267  and  _269
REMARK   98  A    between atoms: _269  and  _270
REMARK   99  A    between atoms: _269  and  _272
REMARK  100  A    between atoms: _272  and  _273
REMARK  101  A    between atoms: _283  and  _285
REMARK  102  A    between atoms: _285  and  _286
REMARK  103  A    between atoms: _285  and  _288
REMARK  104  A    between atoms: _288  and  _289
REMARK  105  A    between atoms: _289  and  _290
REMARK  106  A    between atoms: _293  and  _295
REMARK  107  A    between atoms: _295  and  _296
REMARK  108  A    between atoms: _295  and  _298
REMARK  109  A    between atoms: _298  and  _299
REMARK  110  A    between atoms: _305  and  _307
REMARK  111  A    between atoms: _307  and  _308
REMARK  112  A    between atoms: _311  and  _313
REMARK  113  A    between atoms: _313  and  _314
REMARK  114  A    between atoms: _313  and  _316
REMARK  115  A    between atoms: _316  and  _317
REMARK  116  A    between atoms: _323  and  _325
REMARK  117  A    between atoms: _325  and  _326
REMARK  118  A    between atoms: _325  and  _328
REMARK  119  A    between atoms: _328  and  _329
REMARK  120  A    between atoms: _334  and  _336
REMARK  121  A    between atoms: _336  and  _337
REMARK  122  A    between atoms: _336  and  _339
REMARK  123  A    between atoms: _339  and  _340
REMARK  124  A    between atoms: _340  and  _341
REMARK  125  A    between atoms: _344  and  _346
REMARK  126  A    between atoms: _346  and  _347
REMARK  127  A    between atoms: _346  and  _349
REMARK  128  A    between atoms: _349  and  _350
REMARK  129  A    between atoms: _350  and  _351
REMARK  130  A    between atoms: _351  and  _352
REMARK  131  A    between atoms: _352  and  _353
REMARK  132  A    between atoms: _357  and  _359
REMARK  133  A    between atoms: _359  and  _360
REMARK  134  A    between atoms: _359  and  _362
REMARK  135  A    between atoms: _362  and  _363
REMARK  136  A    between atoms: _363  and  _364
REMARK  137  A    between atoms: _367  and  _369
REMARK  138  A    between atoms: _369  and  _370
REMARK  139  A    between atoms: _369  and  _372
REMARK  140  A    between atoms: _372  and  _373
REMARK  141  A    between atoms: _376  and  _378
REMARK  142  A    between atoms: _378  and  _379
REMARK  143  A    between atoms: _378  and  _381
REMARK  144  A    between atoms: _381  and  _382
REMARK                            x       y       z     vdW  Elec       q    Type
REMARK                         _______ _______ _______ _____ _____    ______ ____
ROOT
ATOM      1  CA  HIS A   2      17.802  23.237  17.735  0.00  0.00    +0.155 C 
ENDROOT
BRANCH   1   4
ATOM      2  C   PHE A   1      17.154  24.931  16.096  0.00  0.00    +0.239 C 
ATOM      3  O   PHE A   1      16.112  25.198  16.685  0.00  0.00    -0.274 OA
ATOM      4  N   HIS A   2      18.041  24.041  16.543  0.00  0.00    -0.297 N 
ATOM      5  H   HIS A   2      18.933  23.916  16.024  0.00  0.00    +0.150 HD
BRANCH   2   6
ATOM      6  CA  PHE A   1      17.484  25.601  14.761  0.00  0.00    +0.149 C 
BRANCH   6   7
ATOM      7  N   PHE A   1      16.755  24.873  13.719  0.00  0.00    -0.238 NA
ATOM      8  H   PHE A   1      15.724  24.992  13.656  0.00  0.00    +0.142 HD
ENDBRANCH   6   7
BRANCH   6   9
ATOM      9  CB  PHE A   1      17.045  27.066  14.750  0.00  0.00    +0.053 C 
BRANCH   9  10
ATOM     10  CG  PHE A   1      17.821  27.961  15.684  0.00  0.00    -0.020 A 
ATOM     11  CD2 PHE A   1      17.316  28.276  16.943  0.00  0.00    -0.004 A 
ATOM     12  CE2 PHE A   1      18.011  29.130  17.793  0.00  0.00    -0.000 A 
ATOM     13  CZ  PHE A   1      19.204  29.724  17.373  0.00  0.00    -0.000 A 
ATOM     14  CE1 PHE A   1      19.698  29.440  16.115  0.00  0.00    -0.000 A 
ATOM     15  CD1 PHE A   1      18.997  28.567  15.272  0.00  0.00    -0.004 A 
ENDBRANCH   9  10
ENDBRANCH   6   9
ENDBRANCH   2   6
ENDBRANCH   1   4
BRANCH   1  16
ATOM     16  C   HIS A   2      18.469  23.864  18.952  0.00  0.00    +0.241 C 
ATOM     17  N   GLU A   3      17.724  24.695  19.672  0.00  0.00    -0.298 N 
ATOM     18  H   GLU A   3      16.761  24.921  19.352  0.00  0.00    +0.150 HD
ATOM     19  O   HIS A   2      19.641  23.602  19.226  0.00  0.00    -0.273 OA
BRANCH  17  20
ATOM     20  CA  GLU A   3      18.229  25.301  20.909  0.00  0.00    +0.137 C 
BRANCH  20  21
ATOM     21  C   GLU A   3      17.054  25.718  21.788  0.00  0.00    +0.227 C 
ATOM     22  O   GLU A   3      16.038  26.199  21.282  0.00  0.00    -0.286 OA
ENDBRANCH  20  21
BRANCH  20  23
ATOM     23  CB  GLU A   3      19.120  26.508  20.581  0.00  0.00    +0.039 C 
BRANCH  23  24
ATOM     24  CG  GLU A   3      19.984  26.971  21.753  0.00  0.00    +0.116 C 
BRANCH  24  25
ATOM     25  CD  GLU A   3      20.837  28.186  21.428  0.00  0.00    +0.365 C 
ATOM     26  OE2 GLU A   3      21.161  28.956  22.369  0.00  0.00    -0.246 OA
ATOM     27  OE1 GLU A   3      21.196  28.369  20.242  0.00  0.00    -0.246 OA
ENDBRANCH  24  25
ENDBRANCH  23  24
ENDBRANCH  20  23
ENDBRANCH  17  20
ENDBRANCH   1  16
BRANCH   1  28
ATOM     28  CB  HIS A   2      18.351  21.839  17.492  0.00  0.00    +0.076 C 
BRANCH  28  29
ATOM     29  CG  HIS A   2      18.130  20.892  18.629  0.00  0.00    +0.082 A 
ATOM     30  ND1 HIS A   2      19.120  20.565  19.534  0.00  0.00    -0.227 NA
ATOM     31  CE1 HIS A   2      18.636  19.695  20.408  0.00  0.00    +0.199 A 
ATOM     32  NE2 HIS A   2      17.375  19.446  20.097  0.00  0.00    -0.221 NA
ATOM     33  CD2 HIS A   2      17.038  20.177  18.984  0.00  0.00    +0.115 A 
ENDBRANCH  28  29
ENDBRANCH   1  28
TORSDOF 13
REMARK  Name = ../refined-set-2016/2bvd/2bvd_pocket.pdb
REMARK  144 active torsions:
REMARK  status: ('A' for Active; 'I' for Inactive)
REMARK    1  A    between atoms: _1  and  _3
REMARK    2  A    between atoms: _3  and  _4
REMARK    3  A    between atoms: _3  and  _6
REMARK    4  A    between atoms: _6  and  _7
REMARK    5  A    between atoms: _17  and  _19
REMARK    6  A    between atoms: _19  and  _20
REMARK    7  A    between atoms: _22  and  _24
REMARK    8  A    between atoms: _24  and  _25
REMARK    9  A    between atoms: _24  and  _27
REMARK   10  A    between atoms: _27  and  _28
REMARK   11  A    between atoms: _31  and  _33
REMARK   12  A    between atoms: _33  and  _34
REMARK   13  A    between atoms: _33  and  _36
REMARK   14  A    between atoms: _36  and  _37
REMARK   15  A    between atoms: _37  and  _38
REMARK   16  A    between atoms: _43  and  _45
REMARK   17  A    between atoms: _45  and  _46
REMARK   18  A    between atoms: _45  and  _48
REMARK   19  A    between atoms: _48  and  _49
REMARK   20  A    between atoms: _54  and  _56
REMARK   21  A    between atoms: _56  and  _57
REMARK   22  A    between atoms: _56  and  _59
REMARK   23  A    between atoms: _59  and  _60
REMARK   24  A    between atoms: _60  and  _61
REMARK   25  A    between atoms: _66  and  _68
REMARK   26  A    between atoms: _68  and  _69
REMARK   27  A    between atoms: _68  and  _71
REMARK   28  A    between atoms: _71  and  _72
REMARK   29  A    between atoms: _78  and  _80
REMARK   30  A    between atoms: _80  and  _81
REMARK   31  A    between atoms: _80  and  _83
REMARK   32  A    between atoms: _83  and  _84
REMARK   33  A    between atoms: _87  and  _89
REMARK   34  A    between atoms: _89  and  _90
REMARK   35  A    between atoms: _89  and  _92
REMARK   36  A    between atoms: _92  and  _93
REMARK   37  A    between atoms: _98  and  _100
REMARK   38  A    between atoms: _100  and  _101
REMARK   39  A    between atoms: _100  and  _103
REMARK   40  A    between atoms: _103  and  _104
REMARK   41  A    between atoms: _107  and  _109
REMARK   42  A    between atoms: _109  and  _110
REMARK   43  A    between atoms: _109  and  _112
REMARK   44  A    between atoms: _112  and  _113
REMARK   45  A    between atoms: _113  and  _114
REMARK   46  A    between atoms: _117  and  _119
REMARK   47  A    between atoms: _119  and  _120
REMARK   48  A    between atoms: _119  and  _122
REMARK   49  A    between atoms: _122  and  _123
REMARK   50  A    between atoms: _133  and  _135
REMARK   51  A    between atoms: _135  and  _136
REMARK   52  A    between atoms: _135  and  _138
REMARK   53  A    between atoms: _138  and  _139
REMARK   54  A    between atoms: _139  and  _140
REMARK   55  A    between atoms: _140  and  _141
REMARK   56  A    between atoms: _150  and  _152
REMARK   57  A    between atoms: _152  and  _153
REMARK   58  A    between atoms: _152  and  _155
REMARK   59  A    between atoms: _155  and  _156
REMARK   60  A    between atoms: _161  and  _163
REMARK   61  A    between atoms: _163  and  _164
REMARK   62  A    between atoms: _163  and  _166
REMARK   63  A    between atoms: _166  and  _167
REMARK   64  A    between atoms: _167  and  _168
REMARK   65  A    between atoms: _171  and  _173
REMARK   66  A    between atoms: _173  and  _174
REMARK   67  A    between atoms: _173  and  _176
REMARK   68  A    between atoms: _176  and  _177
REMARK   69  A    between atoms: _187  and  _189
REMARK   70  A    between atoms: _189  and  _190
REMARK   71  A    between atoms: _189  and  _192
REMARK   72  A    between atoms: _192  and  _193
REMARK   73  A    between atoms: _198  and  _199
REMARK   74  A    between atoms: _201  and  _203
REMARK   75  A    between atoms: _203  and  _204
REMARK   76  A    between atoms: _203  and  _206
REMARK   77  A    between atoms: _206  and  _207
REMARK   78  A    between atoms: _217  and  _219
REMARK   79  A    between atoms: _219  and  _220
REMARK   80  A    between atoms: _219  and  _222
REMARK   81  A    between atoms: _222  and  _223
REMARK   82  A    between atoms: _228  and  _230
REMARK   83  A    between atoms: _230  and  _231
REMARK   84  A    between atoms: _230  and  _233
REMARK   85  A    between atoms: _233  and  _234
REMARK   86  A    between atoms: _239  and  _241
REMARK   87  A    between atoms: _241  and  _242
REMARK   88  A    between atoms: _241  and  _244
REMARK   89  A    between atoms: _244  and  _245
REMARK   90  A    between atoms: _248  and  _250
REMARK   91  A    between atoms: _250  and  _251
REMARK   92  A    between atoms: _253  and  _255
REMARK   93  A    between atoms: _255  and  _256
REMARK   94  A    between atoms: _255  and  _258
REMARK   95  A    between atoms: _258  and  _259
REMARK   96  A    between atoms: _264  and  _265
REMARK   97  A    between atoms: _267  and  _269
REMARK   98  A    between atoms: _269  and  _270
REMARK   99  A    between atoms: _269  and  _272
REMARK  100  A    between atoms: _272  and  _273
REMARK  101  A    between atoms: _283  and  _285
REMARK  102  A    between atoms: _285  and  _286
REMARK  103  A    between atoms: _285  and  _288
REMARK  104  A    between atoms: _288  and  _289
REMARK  105  A    between atoms: _289  and  _290
REMARK  106  A    between atoms: _293  and  _295
REMARK  107  A    between atoms: _295  and  _296
REMARK  108  A    between atoms: _295  and  _298
REMARK  109  A    between atoms: _298  and  _299
REMARK  110  A    between atoms: _305  and  _307
REMARK  111  A    between atoms: _307  and  _308
REMARK  112  A    between atoms: _311  and  _313
REMARK  113  A    between atoms: _313  and  _314
REMARK  114  A    between atoms: _313  and  _316
REMARK  115  A    between atoms: _316  and  _317
REMARK  116  A    between atoms: _323  and  _325
REMARK  117  A    between atoms: _325  and  _326
REMARK  118  A    between atoms: _325  and  _328
REMARK  119  A    between atoms: _328  and  _329
REMARK  120  A    between atoms: _334  and  _336
REMARK  121  A    between atoms: _336  and  _337
REMARK  122  A    between atoms: _336  and  _339
REMARK  123  A    between atoms: _339  and  _340
REMARK  124  A    between atoms: _340  and  _341
REMARK  125  A    between atoms: _344  and  _346
REMARK  126  A    between atoms: _346  and  _347
REMARK  127  A    between atoms: _346  and  _349
REMARK  128  A    between atoms: _349  and  _350
REMARK  129  A    between atoms: _350  and  _351
REMARK  130  A    between atoms: _351  and  _352
REMARK  131  A    between atoms: _352  and  _353
REMARK  132  A    between atoms: _357  and  _359
REMARK  133  A    between atoms: _359  and  _360
REMARK  134  A    between atoms: _359  and  _362
REMARK  135  A    between atoms: _362  and  _363
REMARK  136  A    between atoms: _363  and  _364
REMARK  137  A    between atoms: _367  and  _369
REMARK  138  A    between atoms: _369  and  _370
REMARK  139  A    between atoms: _369  and  _372
REMARK  140  A    between atoms: _372  and  _373
REMARK  141  A    between atoms: _376  and  _378
REMARK  142  A    between atoms: _378  and  _379
REMARK  143  A    between atoms: _378  and  _381
REMARK  144  A    between atoms: _381  and  _382
REMARK                            x       y       z     vdW  Elec       q    Type
REMARK                         _______ _______ _______ _____ _____    ______ ____
ROOT
ATOM      1  CA  GLU A   2      13.801  32.439  23.182  0.00  0.00    +0.149 C 
ENDROOT
BRANCH   1   4
ATOM      2  C   LYS A   1      15.383  30.748  23.970  0.00  0.00    +0.238 C 
ATOM      3  O   LYS A   1      14.887  30.777  25.113  0.00  0.00    -0.274 OA
ATOM      4  N   GLU A   2      14.908  31.490  22.968  0.00  0.00    -0.297 N 
ATOM      5  H   GLU A   2      15.326  31.397  22.020  0.00  0.00    +0.150 HD
BRANCH   2   6
ATOM      6  CA  LYS A   1      16.554  29.797  23.675  0.00  0.00    +0.145 C 
BRANCH   6   7
ATOM      7  N   LYS A   1      16.090  28.416  23.673  0.00  0.00    -0.238 NA
ATOM      8  H   LYS A   1      15.265  28.166  23.091  0.00  0.00    +0.142 HD
ENDBRANCH   6   7
BRANCH   6   9
ATOM      9  CB  LYS A   1      17.264  30.112  22.352  0.00  0.00    +0.026 C 
BRANCH   9  10
ATOM     10  CG  LYS A   1      18.170  31.327  22.397  0.00  0.00    -0.000 C 
BRANCH  10  11
ATOM     11  CD  LYS A   1      18.839  31.538  21.042  0.00  0.00    -0.024 C 
BRANCH  11  12
ATOM     12  CE  LYS A   1      19.722  32.764  21.088  0.00  0.00    -0.086 C 
BRANCH  12  13
ATOM     13  NZ  LYS A   1      20.432  32.986  19.802  0.00  0.00    +0.380 N 
ATOM     14  HZ1 LYS A   1      21.026  33.836  19.878  0.00  0.00    -0.089 HD
ATOM     15  HZ2 LYS A   1      21.030  32.162  19.591  0.00  0.00    -0.089 HD
ATOM     16  HZ3 LYS A   1      19.735  33.115  19.041  0.00  0.00    -0.089 HD
ENDBRANCH  12  13
ENDBRANCH  11  12
ENDBRANCH  10  11
ENDBRANCH   9  10
ENDBRANCH   6   9
ENDBRANCH   2   6
ENDBRANCH   1   4
BRANCH   1  17
ATOM     17  C   GLU A   2      12.546  31.683  23.606  0.00  0.00    +0.241 C 
ATOM     18  O   GLU A   2      11.733  32.184  24.396  0.00  0.00    -0.273 OA
ATOM     19  N   THR A   3      12.399  30.485  23.047  0.00  0.00    -0.296 N 
ATOM     20  H   THR A   3      12.990  30.264  22.221  0.00  0.00    +0.150 HD
BRANCH  19  21
ATOM     21  CA  THR A   3      11.465  29.453  23.509  0.00  0.00    +0.164 C 
BRANCH  21  22
ATOM     22  CB  THR A   3      10.052  29.608  22.879  0.00  0.00    +0.136 C 
ATOM     23  CG2 THR A   3      10.079  29.285  21.382  0.00  0.00    +0.034 C 
BRANCH  22  24
ATOM     24  OG1 THR A   3       9.124  28.734  23.547  0.00  0.00    -0.382 OA
ATOM     25  HG1 THR A   3       9.426  27.796  23.449  0.00  0.00    +0.210 HD
ENDBRANCH  22  24
ENDBRANCH  21  22
BRANCH  21  26
ATOM     26  C   THR A   3      12.117  28.103  23.188  0.00  0.00    +0.229 C 
ATOM     27  O   THR A   3      13.249  28.061  22.676  0.00  0.00    -0.286 OA
ENDBRANCH  21  26
ENDBRANCH  19  21
ENDBRANCH   1  17
BRANCH   1  28
ATOM     28  CB  GLU A   2      13.519  33.255  21.918  0.00  0.00    +0.041 C 
BRANCH  28  29
ATOM     29  CG  GLU A   2      14.694  34.134  21.466  0.00  0.00    +0.116 C 
BRANCH  29  30
ATOM     30  CD  GLU A   2      15.617  33.450  20.468  0.00  0.00    +0.365 C 
ATOM     31  OE2 GLU A   2      15.588  32.204  20.361  0.00  0.00    -0.246 OA
ATOM     32  OE1 GLU A   2      16.379  34.187  19.791  0.00  0.00    -0.246 OA
ENDBRANCH  29  30
ENDBRANCH  28  29
ENDBRANCH   1  28
TORSDOF 16
REMARK  Name = ../refined-set-2016/2bvd/2bvd_pocket.pdb
REMARK  144 active torsions:
REMARK  status: ('A' for Active; 'I' for Inactive)
REMARK    1  A    between atoms: _1  and  _3
REMARK    2  A    between atoms: _3  and  _4
REMARK    3  A    between atoms: _3  and  _6
REMARK    4  A    between atoms: _6  and  _7
REMARK    5  A    between atoms: _17  and  _19
REMARK    6  A    between atoms: _19  and  _20
REMARK    7  A    between atoms: _22  and  _24
REMARK    8  A    between atoms: _24  and  _25
REMARK    9  A    between atoms: _24  and  _27
REMARK   10  A    between atoms: _27  and  _28
REMARK   11  A    between atoms: _31  and  _33
REMARK   12  A    between atoms: _33  and  _34
REMARK   13  A    between atoms: _33  and  _36
REMARK   14  A    between atoms: _36  and  _37
REMARK   15  A    between atoms: _37  and  _38
REMARK   16  A    between atoms: _43  and  _45
REMARK   17  A    between atoms: _45  and  _46
REMARK   18  A    between atoms: _45  and  _48
REMARK   19  A    between atoms: _48  and  _49
REMARK   20  A    between atoms: _54  and  _56
REMARK   21  A    between atoms: _56  and  _57
REMARK   22  A    between atoms: _56  and  _59
REMARK   23  A    between atoms: _59  and  _60
REMARK   24  A    between atoms: _60  and  _61
REMARK   25  A    between atoms: _66  and  _68
REMARK   26  A    between atoms: _68  and  _69
REMARK   27  A    between atoms: _68  and  _71
REMARK   28  A    between atoms: _71  and  _72
REMARK   29  A    between atoms: _78  and  _80
REMARK   30  A    between atoms: _80  and  _81
REMARK   31  A    between atoms: _80  and  _83
REMARK   32  A    between atoms: _83  and  _84
REMARK   33  A    between atoms: _87  and  _89
REMARK   34  A    between atoms: _89  and  _90
REMARK   35  A    between atoms: _89  and  _92
REMARK   36  A    between atoms: _92  and  _93
REMARK   37  A    between atoms: _98  and  _100
REMARK   38  A    between atoms: _100  and  _101
REMARK   39  A    between atoms: _100  and  _103
REMARK   40  A    between atoms: _103  and  _104
REMARK   41  A    between atoms: _107  and  _109
REMARK   42  A    between atoms: _109  and  _110
REMARK   43  A    between atoms: _109  and  _112
REMARK   44  A    between atoms: _112  and  _113
REMARK   45  A    between atoms: _113  and  _114
REMARK   46  A    between atoms: _117  and  _119
REMARK   47  A    between atoms: _119  and  _120
REMARK   48  A    between atoms: _119  and  _122
REMARK   49  A    between atoms: _122  and  _123
REMARK   50  A    between atoms: _133  and  _135
REMARK   51  A    between atoms: _135  and  _136
REMARK   52  A    between atoms: _135  and  _138
REMARK   53  A    between atoms: _138  and  _139
REMARK   54  A    between atoms: _139  and  _140
REMARK   55  A    between atoms: _140  and  _141
REMARK   56  A    between atoms: _150  and  _152
REMARK   57  A    between atoms: _152  and  _153
REMARK   58  A    between atoms: _152  and  _155
REMARK   59  A    between atoms: _155  and  _156
REMARK   60  A    between atoms: _161  and  _163
REMARK   61  A    between atoms: _163  and  _164
REMARK   62  A    between atoms: _163  and  _166
REMARK   63  A    between atoms: _166  and  _167
REMARK   64  A    between atoms: _167  and  _168
REMARK   65  A    between atoms: _171  and  _173
REMARK   66  A    between atoms: _173  and  _174
REMARK   67  A    between atoms: _173  and  _176
REMARK   68  A    between atoms: _176  and  _177
REMARK   69  A    between atoms: _187  and  _189
REMARK   70  A    between atoms: _189  and  _190
REMARK   71  A    between atoms: _189  and  _192
REMARK   72  A    between atoms: _192  and  _193
REMARK   73  A    between atoms: _198  and  _199
REMARK   74  A    between atoms: _201  and  _203
REMARK   75  A    between atoms: _203  and  _204
REMARK   76  A    between atoms: _203  and  _206
REMARK   77  A    between atoms: _206  and  _207
REMARK   78  A    between atoms: _217  and  _219
REMARK   79  A    between atoms: _219  and  _220
REMARK   80  A    between atoms: _219  and  _222
REMARK   81  A    between atoms: _222  and  _223
REMARK   82  A    between atoms: _228  and  _230
REMARK   83  A    between atoms: _230  and  _231
REMARK   84  A    between atoms: _230  and  _233
REMARK   85  A    between atoms: _233  and  _234
REMARK   86  A    between atoms: _239  and  _241
REMARK   87  A    between atoms: _241  and  _242
REMARK   88  A    between atoms: _241  and  _244
REMARK   89  A    between atoms: _244  and  _245
REMARK   90  A    between atoms: _248  and  _250
REMARK   91  A    between atoms: _250  and  _251
REMARK   92  A    between atoms: _253  and  _255
REMARK   93  A    between atoms: _255  and  _256
REMARK   94  A    between atoms: _255  and  _258
REMARK   95  A    between atoms: _258  and  _259
REMARK   96  A    between atoms: _264  and  _265
REMARK   97  A    between atoms: _267  and  _269
REMARK   98  A    between atoms: _269  and  _270
REMARK   99  A    between atoms: _269  and  _272
REMARK  100  A    between atoms: _272  and  _273
REMARK  101  A    between atoms: _283  and  _285
REMARK  102  A    between atoms: _285  and  _286
REMARK  103  A    between atoms: _285  and  _288
REMARK  104  A    between atoms: _288  and  _289
REMARK  105  A    between atoms: _289  and  _290
REMARK  106  A    between atoms: _293  and  _295
REMARK  107  A    between atoms: _295  and  _296
REMARK  108  A    between atoms: _295  and  _298
REMARK  109  A    between atoms: _298  and  _299
REMARK  110  A    between atoms: _305  and  _307
REMARK  111  A    between atoms: _307  and  _308
REMARK  112  A    between atoms: _311  and  _313
REMARK  113  A    between atoms: _313  and  _314
REMARK  114  A    between atoms: _313  and  _316
REMARK  115  A    between atoms: _316  and  _317
REMARK  116  A    between atoms: _323  and  _325
REMARK  117  A    between atoms: _325  and  _326
REMARK  118  A    between atoms: _325  and  _328
REMARK  119  A    between atoms: _328  and  _329
REMARK  120  A    between atoms: _334  and  _336
REMARK  121  A    between atoms: _336  and  _337
REMARK  122  A    between atoms: _336  and  _339
REMARK  123  A    between atoms: _339  and  _340
REMARK  124  A    between atoms: _340  and  _341
REMARK  125  A    between atoms: _344  and  _346
REMARK  126  A    between atoms: _346  and  _347
REMARK  127  A    between atoms: _346  and  _349
REMARK  128  A    between atoms: _349  and  _350
REMARK  129  A    between atoms: _350  and  _351
REMARK  130  A    between atoms: _351  and  _352
REMARK  131  A    between atoms: _352  and  _353
REMARK  132  A    between atoms: _357  and  _359
REMARK  133  A    between atoms: _359  and  _360
REMARK  134  A    between atoms: _359  and  _362
REMARK  135  A    between atoms: _362  and  _363
REMARK  136  A    between atoms: _363  and  _364
REMARK  137  A    between atoms: _367  and  _369
REMARK  138  A    between atoms: _369  and  _370
REMARK  139  A    between atoms: _369  and  _372
REMARK  140  A    between atoms: _372  and  _373
REMARK  141  A    between atoms: _376  and  _378
REMARK  142  A    between atoms: _378  and  _379
REMARK  143  A    between atoms: _378  and  _381
REMARK  144  A    between atoms: _381  and  _382
REMARK                            x       y       z     vdW  Elec       q    Type
REMARK                         _______ _______ _______ _____ _____    ______ ____
ROOT
ATOM      1  CG  TRP A   1      13.686  27.702  18.999  0.00  0.00    -0.002 A 
ATOM      2  CD1 TRP A   1      14.618  28.580  19.494  0.00  0.00    +0.068 A 
ATOM      3  NE1 TRP A   1      14.137  29.873  19.430  0.00  0.00    -0.352 N 
ATOM      4  HE1 TRP A   1      14.653  30.725  19.729  0.00  0.00    +0.166 HD
ATOM      5  CE2 TRP A   1      12.869  29.851  18.908  0.00  0.00    +0.056 A 
ATOM      6  CZ2 TRP A   1      11.980  30.909  18.663  0.00  0.00    +0.017 A 
ATOM      7  CH2 TRP A   1      10.750  30.604  18.115  0.00  0.00    +0.001 A 
ATOM      8  CZ3 TRP A   1      10.392  29.268  17.809  0.00  0.00    +0.000 A 
ATOM      9  CE3 TRP A   1      11.288  28.207  18.051  0.00  0.00    +0.001 A 
ATOM     10  CD2 TRP A   1      12.545  28.498  18.620  0.00  0.00    +0.013 A 
ENDROOT
BRANCH   1  11
ATOM     11  CB  TRP A   1      13.852  26.213  18.859  0.00  0.00    +0.053 C 
BRANCH  11  12
ATOM     12  CA  TRP A   1      12.827  25.337  19.592  0.00  0.00    +0.137 C 
BRANCH  12  13
ATOM     13  N   TRP A   1      12.833  25.659  21.010  0.00  0.00    -0.239 NA
ATOM     14  H   TRP A   1      13.614  26.234  21.386  0.00  0.00    +0.142 HD
ENDBRANCH  12  13
BRANCH  12  15
ATOM     15  C   TRP A   1      13.211  23.879  19.337  0.00  0.00    +0.224 C 
ATOM     16  O   TRP A   1      13.019  23.371  18.233  0.00  0.00    -0.287 OA
ENDBRANCH  12  15
ENDBRANCH  11  12
ENDBRANCH   1  11
TORSDOF 4
REMARK  Name = ../refined-set-2016/2bvd/2bvd_pocket.pdb
REMARK  144 active torsions:
REMARK  status: ('A' for Active; 'I' for Inactive)
REMARK    1  A    between atoms: _1  and  _3
REMARK    2  A    between atoms: _3  and  _4
REMARK    3  A    between atoms: _3  and  _6
REMARK    4  A    between atoms: _6  and  _7
REMARK    5  A    between atoms: _17  and  _19
REMARK    6  A    between atoms: _19  and  _20
REMARK    7  A    between atoms: _22  and  _24
REMARK    8  A    between atoms: _24  and  _25
REMARK    9  A    between atoms: _24  and  _27
REMARK   10  A    between atoms: _27  and  _28
REMARK   11  A    between atoms: _31  and  _33
REMARK   12  A    between atoms: _33  and  _34
REMARK   13  A    between atoms: _33  and  _36
REMARK   14  A    between atoms: _36  and  _37
REMARK   15  A    between atoms: _37  and  _38
REMARK   16  A    between atoms: _43  and  _45
REMARK   17  A    between atoms: _45  and  _46
REMARK   18  A    between atoms: _45  and  _48
REMARK   19  A    between atoms: _48  and  _49
REMARK   20  A    between atoms: _54  and  _56
REMARK   21  A    between atoms: _56  and  _57
REMARK   22  A    between atoms: _56  and  _59
REMARK   23  A    between atoms: _59  and  _60
REMARK   24  A    between atoms: _60  and  _61
REMARK   25  A    between atoms: _66  and  _68
REMARK   26  A    between atoms: _68  and  _69
REMARK   27  A    between atoms: _68  and  _71
REMARK   28  A    between atoms: _71  and  _72
REMARK   29  A    between atoms: _78  and  _80
REMARK   30  A    between atoms: _80  and  _81
REMARK   31  A    between atoms: _80  and  _83
REMARK   32  A    between atoms: _83  and  _84
REMARK   33  A    between atoms: _87  and  _89
REMARK   34  A    between atoms: _89  and  _90
REMARK   35  A    between atoms: _89  and  _92
REMARK   36  A    between atoms: _92  and  _93
REMARK   37  A    between atoms: _98  and  _100
REMARK   38  A    between atoms: _100  and  _101
REMARK   39  A    between atoms: _100  and  _103
REMARK   40  A    between atoms: _103  and  _104
REMARK   41  A    between atoms: _107  and  _109
REMARK   42  A    between atoms: _109  and  _110
REMARK   43  A    between atoms: _109  and  _112
REMARK   44  A    between atoms: _112  and  _113
REMARK   45  A    between atoms: _113  and  _114
REMARK   46  A    between atoms: _117  and  _119
REMARK   47  A    between atoms: _119  and  _120
REMARK   48  A    between atoms: _119  and  _122
REMARK   49  A    between atoms: _122  and  _123
REMARK   50  A    between atoms: _133  and  _135
REMARK   51  A    between atoms: _135  and  _136
REMARK   52  A    between atoms: _135  and  _138
REMARK   53  A    between atoms: _138  and  _139
REMARK   54  A    between atoms: _139  and  _140
REMARK   55  A    between atoms: _140  and  _141
REMARK   56  A    between atoms: _150  and  _152
REMARK   57  A    between atoms: _152  and  _153
REMARK   58  A    between atoms: _152  and  _155
REMARK   59  A    between atoms: _155  and  _156
REMARK   60  A    between atoms: _161  and  _163
REMARK   61  A    between atoms: _163  and  _164
REMARK   62  A    between atoms: _163  and  _166
REMARK   63  A    between atoms: _166  and  _167
REMARK   64  A    between atoms: _167  and  _168
REMARK   65  A    between atoms: _171  and  _173
REMARK   66  A    between atoms: _173  and  _174
REMARK   67  A    between atoms: _173  and  _176
REMARK   68  A    between atoms: _176  and  _177
REMARK   69  A    between atoms: _187  and  _189
REMARK   70  A    between atoms: _189  and  _190
REMARK   71  A    between atoms: _189  and  _192
REMARK   72  A    between atoms: _192  and  _193
REMARK   73  A    between atoms: _198  and  _199
REMARK   74  A    between atoms: _201  and  _203
REMARK   75  A    between atoms: _203  and  _204
REMARK   76  A    between atoms: _203  and  _206
REMARK   77  A    between atoms: _206  and  _207
REMARK   78  A    between atoms: _217  and  _219
REMARK   79  A    between atoms: _219  and  _220
REMARK   80  A    between atoms: _219  and  _222
REMARK   81  A    between atoms: _222  and  _223
REMARK   82  A    between atoms: _228  and  _230
REMARK   83  A    between atoms: _230  and  _231
REMARK   84  A    between atoms: _230  and  _233
REMARK   85  A    between atoms: _233  and  _234
REMARK   86  A    between atoms: _239  and  _241
REMARK   87  A    between atoms: _241  and  _242
REMARK   88  A    between atoms: _241  and  _244
REMARK   89  A    between atoms: _244  and  _245
REMARK   90  A    between atoms: _248  and  _250
REMARK   91  A    between atoms: _250  and  _251
REMARK   92  A    between atoms: _253  and  _255
REMARK   93  A    between atoms: _255  and  _256
REMARK   94  A    between atoms: _255  and  _258
REMARK   95  A    between atoms: _258  and  _259
REMARK   96  A    between atoms: _264  and  _265
REMARK   97  A    between atoms: _267  and  _269
REMARK   98  A    between atoms: _269  and  _270
REMARK   99  A    between atoms: _269  and  _272
REMARK  100  A    between atoms: _272  and  _273
REMARK  101  A    between atoms: _283  and  _285
REMARK  102  A    between atoms: _285  and  _286
REMARK  103  A    between atoms: _285  and  _288
REMARK  104  A    between atoms: _288  and  _289
REMARK  105  A    between atoms: _289  and  _290
REMARK  106  A    between atoms: _293  and  _295
REMARK  107  A    between atoms: _295  and  _296
REMARK  108  A    between atoms: _295  and  _298
REMARK  109  A    between atoms: _298  and  _299
REMARK  110  A    between atoms: _305  and  _307
REMARK  111  A    between atoms: _307  and  _308
REMARK  112  A    between atoms: _311  and  _313
REMARK  113  A    between atoms: _313  and  _314
REMARK  114  A    between atoms: _313  and  _316
REMARK  115  A    between atoms: _316  and  _317
REMARK  116  A    between atoms: _323  and  _325
REMARK  117  A    between atoms: _325  and  _326
REMARK  118  A    between atoms: _325  and  _328
REMARK  119  A    between atoms: _328  and  _329
REMARK  120  A    between atoms: _334  and  _336
REMARK  121  A    between atoms: _336  and  _337
REMARK  122  A    between atoms: _336  and  _339
REMARK  123  A    between atoms: _339  and  _340
REMARK  124  A    between atoms: _340  and  _341
REMARK  125  A    between atoms: _344  and  _346
REMARK  126  A    between atoms: _346  and  _347
REMARK  127  A    between atoms: _346  and  _349
REMARK  128  A    between atoms: _349  and  _350
REMARK  129  A    between atoms: _350  and  _351
REMARK  130  A    between atoms: _351  and  _352
REMARK  131  A    between atoms: _352  and  _353
REMARK  132  A    between atoms: _357  and  _359
REMARK  133  A    between atoms: _359  and  _360
REMARK  134  A    between atoms: _359  and  _362
REMARK  135  A    between atoms: _362  and  _363
REMARK  136  A    between atoms: _363  and  _364
REMARK  137  A    between atoms: _367  and  _369
REMARK  138  A    between atoms: _369  and  _370
REMARK  139  A    between atoms: _369  and  _372
REMARK  140  A    between atoms: _372  and  _373
REMARK  141  A    between atoms: _376  and  _378
REMARK  142  A    between atoms: _378  and  _379
REMARK  143  A    between atoms: _378  and  _381
REMARK  144  A    between atoms: _381  and  _382
REMARK                            x       y       z     vdW  Elec       q    Type
REMARK                         _______ _______ _______ _____ _____    ______ ____
ROOT
ATOM      1  O   HOH     1      25.213  27.161  22.773  0.00  0.00    +0.000 OA
ENDROOT
TORSDOF 0
REMARK  Name = ../refined-set-2016/2bvd/2bvd_pocket.pdb
REMARK  144 active torsions:
REMARK  status: ('A' for Active; 'I' for Inactive)
REMARK    1  A    between atoms: _1  and  _3
REMARK    2  A    between atoms: _3  and  _4
REMARK    3  A    between atoms: _3  and  _6
REMARK    4  A    between atoms: _6  and  _7
REMARK    5  A    between atoms: _17  and  _19
REMARK    6  A    between atoms: _19  and  _20
REMARK    7  A    between atoms: _22  and  _24
REMARK    8  A    between atoms: _24  and  _25
REMARK    9  A    between atoms: _24  and  _27
REMARK   10  A    between atoms: _27  and  _28
REMARK   11  A    between atoms: _31  and  _33
REMARK   12  A    between atoms: _33  and  _34
REMARK   13  A    between atoms: _33  and  _36
REMARK   14  A    between atoms: _36  and  _37
REMARK   15  A    between atoms: _37  and  _38
REMARK   16  A    between atoms: _43  and  _45
REMARK   17  A    between atoms: _45  and  _46
REMARK   18  A    between atoms: _45  and  _48
REMARK   19  A    between atoms: _48  and  _49
REMARK   20  A    between atoms: _54  and  _56
REMARK   21  A    between atoms: _56  and  _57
REMARK   22  A    between atoms: _56  and  _59
REMARK   23  A    between atoms: _59  and  _60
REMARK   24  A    between atoms: _60  and  _61
REMARK   25  A    between atoms: _66  and  _68
REMARK   26  A    between atoms: _68  and  _69
REMARK   27  A    between atoms: _68  and  _71
REMARK   28  A    between atoms: _71  and  _72
REMARK   29  A    between atoms: _78  and  _80
REMARK   30  A    between atoms: _80  and  _81
REMARK   31  A    between atoms: _80  and  _83
REMARK   32  A    between atoms: _83  and  _84
REMARK   33  A    between atoms: _87  and  _89
REMARK   34  A    between atoms: _89  and  _90
REMARK   35  A    between atoms: _89  and  _92
REMARK   36  A    between atoms: _92  and  _93
REMARK   37  A    between atoms: _98  and  _100
REMARK   38  A    between atoms: _100  and  _101
REMARK   39  A    between atoms: _100  and  _103
REMARK   40  A    between atoms: _103  and  _104
REMARK   41  A    between atoms: _107  and  _109
REMARK   42  A    between atoms: _109  and  _110
REMARK   43  A    between atoms: _109  and  _112
REMARK   44  A    between atoms: _112  and  _113
REMARK   45  A    between atoms: _113  and  _114
REMARK   46  A    between atoms: _117  and  _119
REMARK   47  A    between atoms: _119  and  _120
REMARK   48  A    between atoms: _119  and  _122
REMARK   49  A    between atoms: _122  and  _123
REMARK   50  A    between atoms: _133  and  _135
REMARK   51  A    between atoms: _135  and  _136
REMARK   52  A    between atoms: _135  and  _138
REMARK   53  A    between atoms: _138  and  _139
REMARK   54  A    between atoms: _139  and  _140
REMARK   55  A    between atoms: _140  and  _141
REMARK   56  A    between atoms: _150  and  _152
REMARK   57  A    between atoms: _152  and  _153
REMARK   58  A    between atoms: _152  and  _155
REMARK   59  A    between atoms: _155  and  _156
REMARK   60  A    between atoms: _161  and  _163
REMARK   61  A    between atoms: _163  and  _164
REMARK   62  A    between atoms: _163  and  _166
REMARK   63  A    between atoms: _166  and  _167
REMARK   64  A    between atoms: _167  and  _168
REMARK   65  A    between atoms: _171  and  _173
REMARK   66  A    between atoms: _173  and  _174
REMARK   67  A    between atoms: _173  and  _176
REMARK   68  A    between atoms: _176  and  _177
REMARK   69  A    between atoms: _187  and  _189
REMARK   70  A    between atoms: _189  and  _190
REMARK   71  A    between atoms: _189  and  _192
REMARK   72  A    between atoms: _192  and  _193
REMARK   73  A    between atoms: _198  and  _199
REMARK   74  A    between atoms: _201  and  _203
REMARK   75  A    between atoms: _203  and  _204
REMARK   76  A    between atoms: _203  and  _206
REMARK   77  A    between atoms: _206  and  _207
REMARK   78  A    between atoms: _217  and  _219
REMARK   79  A    between atoms: _219  and  _220
REMARK   80  A    between atoms: _219  and  _222
REMARK   81  A    between atoms: _222  and  _223
REMARK   82  A    between atoms: _228  and  _230
REMARK   83  A    between atoms: _230  and  _231
REMARK   84  A    between atoms: _230  and  _233
REMARK   85  A    between atoms: _233  and  _234
REMARK   86  A    between atoms: _239  and  _241
REMARK   87  A    between atoms: _241  and  _242
REMARK   88  A    between atoms: _241  and  _244
REMARK   89  A    between atoms: _244  and  _245
REMARK   90  A    between atoms: _248  and  _250
REMARK   91  A    between atoms: _250  and  _251
REMARK   92  A    between atoms: _253  and  _255
REMARK   93  A    between atoms: _255  and  _256
REMARK   94  A    between atoms: _255  and  _258
REMARK   95  A    between atoms: _258  and  _259
REMARK   96  A    between atoms: _264  and  _265
REMARK   97  A    between atoms: _267  and  _269
REMARK   98  A    between atoms: _269  and  _270
REMARK   99  A    between atoms: _269  and  _272
REMARK  100  A    between atoms: _272  and  _273
REMARK  101  A    between atoms: _283  and  _285
REMARK  102  A    between atoms: _285  and  _286
REMARK  103  A    between atoms: _285  and  _288
REMARK  104  A    between atoms: _288  and  _289
REMARK  105  A    between atoms: _289  and  _290
REMARK  106  A    between atoms: _293  and  _295
REMARK  107  A    between atoms: _295  and  _296
REMARK  108  A    between atoms: _295  and  _298
REMARK  109  A    between atoms: _298  and  _299
REMARK  110  A    between atoms: _305  and  _307
REMARK  111  A    between atoms: _307  and  _308
REMARK  112  A    between atoms: _311  and  _313
REMARK  113  A    between atoms: _313  and  _314
REMARK  114  A    between atoms: _313  and  _316
REMARK  115  A    between atoms: _316  and  _317
REMARK  116  A    between atoms: _323  and  _325
REMARK  117  A    between atoms: _325  and  _326
REMARK  118  A    between atoms: _325  and  _328
REMARK  119  A    between atoms: _328  and  _329
REMARK  120  A    between atoms: _334  and  _336
REMARK  121  A    between atoms: _336  and  _337
REMARK  122  A    between atoms: _336  and  _339
REMARK  123  A    between atoms: _339  and  _340
REMARK  124  A    between atoms: _340  and  _341
REMARK  125  A    between atoms: _344  and  _346
REMARK  126  A    between atoms: _346  and  _347
REMARK  127  A    between atoms: _346  and  _349
REMARK  128  A    between atoms: _349  and  _350
REMARK  129  A    between atoms: _350  and  _351
REMARK  130  A    between atoms: _351  and  _352
REMARK  131  A    between atoms: _352  and  _353
REMARK  132  A    between atoms: _357  and  _359
REMARK  133  A    between atoms: _359  and  _360
REMARK  134  A    between atoms: _359  and  _362
REMARK  135  A    between atoms: _362  and  _363
REMARK  136  A    between atoms: _363  and  _364
REMARK  137  A    between atoms: _367  and  _369
REMARK  138  A    between atoms: _369  and  _370
REMARK  139  A    between atoms: _369  and  _372
REMARK  140  A    between atoms: _372  and  _373
REMARK  141  A    between atoms: _376  and  _378
REMARK  142  A    between atoms: _378  and  _379
REMARK  143  A    between atoms: _378  and  _381
REMARK  144  A    between atoms: _381  and  _382
REMARK                            x       y       z     vdW  Elec       q    Type
REMARK                         _______ _______ _______ _____ _____    ______ ____
ROOT
ATOM      1  O   HOH     1      27.614  27.413  21.792  0.00  0.00    +0.000 OA
ENDROOT
TORSDOF 0
REMARK  Name = ../refined-set-2016/2bvd/2bvd_pocket.pdb
REMARK  144 active torsions:
REMARK  status: ('A' for Active; 'I' for Inactive)
REMARK    1  A    between atoms: _1  and  _3
REMARK    2  A    between atoms: _3  and  _4
REMARK    3  A    between atoms: _3  and  _6
REMARK    4  A    between atoms: _6  and  _7
REMARK    5  A    between atoms: _17  and  _19
REMARK    6  A    between atoms: _19  and  _20
REMARK    7  A    between atoms: _22  and  _24
REMARK    8  A    between atoms: _24  and  _25
REMARK    9  A    between atoms: _24  and  _27
REMARK   10  A    between atoms: _27  and  _28
REMARK   11  A    between atoms: _31  and  _33
REMARK   12  A    between atoms: _33  and  _34
REMARK   13  A    between atoms: _33  and  _36
REMARK   14  A    between atoms: _36  and  _37
REMARK   15  A    between atoms: _37  and  _38
REMARK   16  A    between atoms: _43  and  _45
REMARK   17  A    between atoms: _45  and  _46
REMARK   18  A    between atoms: _45  and  _48
REMARK   19  A    between atoms: _48  and  _49
REMARK   20  A    between atoms: _54  and  _56
REMARK   21  A    between atoms: _56  and  _57
REMARK   22  A    between atoms: _56  and  _59
REMARK   23  A    between atoms: _59  and  _60
REMARK   24  A    between atoms: _60  and  _61
REMARK   25  A    between atoms: _66  and  _68
REMARK   26  A    between atoms: _68  and  _69
REMARK   27  A    between atoms: _68  and  _71
REMARK   28  A    between atoms: _71  and  _72
REMARK   29  A    between atoms: _78  and  _80
REMARK   30  A    between atoms: _80  and  _81
REMARK   31  A    between atoms: _80  and  _83
REMARK   32  A    between atoms: _83  and  _84
REMARK   33  A    between atoms: _87  and  _89
REMARK   34  A    between atoms: _89  and  _90
REMARK   35  A    between atoms: _89  and  _92
REMARK   36  A    between atoms: _92  and  _93
REMARK   37  A    between atoms: _98  and  _100
REMARK   38  A    between atoms: _100  and  _101
REMARK   39  A    between atoms: _100  and  _103
REMARK   40  A    between atoms: _103  and  _104
REMARK   41  A    between atoms: _107  and  _109
REMARK   42  A    between atoms: _109  and  _110
REMARK   43  A    between atoms: _109  and  _112
REMARK   44  A    between atoms: _112  and  _113
REMARK   45  A    between atoms: _113  and  _114
REMARK   46  A    between atoms: _117  and  _119
REMARK   47  A    between atoms: _119  and  _120
REMARK   48  A    between atoms: _119  and  _122
REMARK   49  A    between atoms: _122  and  _123
REMARK   50  A    between atoms: _133  and  _135
REMARK   51  A    between atoms: _135  and  _136
REMARK   52  A    between atoms: _135  and  _138
REMARK   53  A    between atoms: _138  and  _139
REMARK   54  A    between atoms: _139  and  _140
REMARK   55  A    between atoms: _140  and  _141
REMARK   56  A    between atoms: _150  and  _152
REMARK   57  A    between atoms: _152  and  _153
REMARK   58  A    between atoms: _152  and  _155
REMARK   59  A    between atoms: _155  and  _156
REMARK   60  A    between atoms: _161  and  _163
REMARK   61  A    between atoms: _163  and  _164
REMARK   62  A    between atoms: _163  and  _166
REMARK   63  A    between atoms: _166  and  _167
REMARK   64  A    between atoms: _167  and  _168
REMARK   65  A    between atoms: _171  and  _173
REMARK   66  A    between atoms: _173  and  _174
REMARK   67  A    between atoms: _173  and  _176
REMARK   68  A    between atoms: _176  and  _177
REMARK   69  A    between atoms: _187  and  _189
REMARK   70  A    between atoms: _189  and  _190
REMARK   71  A    between atoms: _189  and  _192
REMARK   72  A    between atoms: _192  and  _193
REMARK   73  A    between atoms: _198  and  _199
REMARK   74  A    between atoms: _201  and  _203
REMARK   75  A    between atoms: _203  and  _204
REMARK   76  A    between atoms: _203  and  _206
REMARK   77  A    between atoms: _206  and  _207
REMARK   78  A    between atoms: _217  and  _219
REMARK   79  A    between atoms: _219  and  _220
REMARK   80  A    between atoms: _219  and  _222
REMARK   81  A    between atoms: _222  and  _223
REMARK   82  A    between atoms: _228  and  _230
REMARK   83  A    between atoms: _230  and  _231
REMARK   84  A    between atoms: _230  and  _233
REMARK   85  A    between atoms: _233  and  _234
REMARK   86  A    between atoms: _239  and  _241
REMARK   87  A    between atoms: _241  and  _242
REMARK   88  A    between atoms: _241  and  _244
REMARK   89  A    between atoms: _244  and  _245
REMARK   90  A    between atoms: _248  and  _250
REMARK   91  A    between atoms: _250  and  _251
REMARK   92  A    between atoms: _253  and  _255
REMARK   93  A    between atoms: _255  and  _256
REMARK   94  A    between atoms: _255  and  _258
REMARK   95  A    between atoms: _258  and  _259
REMARK   96  A    between atoms: _264  and  _265
REMARK   97  A    between atoms: _267  and  _269
REMARK   98  A    between atoms: _269  and  _270
REMARK   99  A    between atoms: _269  and  _272
REMARK  100  A    between atoms: _272  and  _273
REMARK  101  A    between atoms: _283  and  _285
REMARK  102  A    between atoms: _285  and  _286
REMARK  103  A    between atoms: _285  and  _288
REMARK  104  A    between atoms: _288  and  _289
REMARK  105  A    between atoms: _289  and  _290
REMARK  106  A    between atoms: _293  and  _295
REMARK  107  A    between atoms: _295  and  _296
REMARK  108  A    between atoms: _295  and  _298
REMARK  109  A    between atoms: _298  and  _299
REMARK  110  A    between atoms: _305  and  _307
REMARK  111  A    between atoms: _307  and  _308
REMARK  112  A    between atoms: _311  and  _313
REMARK  113  A    between atoms: _313  and  _314
REMARK  114  A    between atoms: _313  and  _316
REMARK  115  A    between atoms: _316  and  _317
REMARK  116  A    between atoms: _323  and  _325
REMARK  117  A    between atoms: _325  and  _326
REMARK  118  A    between atoms: _325  and  _328
REMARK  119  A    between atoms: _328  and  _329
REMARK  120  A    between atoms: _334  and  _336
REMARK  121  A    between atoms: _336  and  _337
REMARK  122  A    between atoms: _336  and  _339
REMARK  123  A    between atoms: _339  and  _340
REMARK  124  A    between atoms: _340  and  _341
REMARK  125  A    between atoms: _344  and  _346
REMARK  126  A    between atoms: _346  and  _347
REMARK  127  A    between atoms: _346  and  _349
REMARK  128  A    between atoms: _349  and  _350
REMARK  129  A    between atoms: _350  and  _351
REMARK  130  A    between atoms: _351  and  _352
REMARK  131  A    between atoms: _352  and  _353
REMARK  132  A    between atoms: _357  and  _359
REMARK  133  A    between atoms: _359  and  _360
REMARK  134  A    between atoms: _359  and  _362
REMARK  135  A    between atoms: _362  and  _363
REMARK  136  A    between atoms: _363  and  _364
REMARK  137  A    between atoms: _367  and  _369
REMARK  138  A    between atoms: _369  and  _370
REMARK  139  A    between atoms: _369  and  _372
REMARK  140  A    between atoms: _372  and  _373
REMARK  141  A    between atoms: _376  and  _378
REMARK  142  A    between atoms: _378  and  _379
REMARK  143  A    between atoms: _378  and  _381
REMARK  144  A    between atoms: _381  and  _382
REMARK                            x       y       z     vdW  Elec       q    Type
REMARK                         _______ _______ _______ _____ _____    ______ ____
ROOT
ATOM      1  O   HOH     1      28.339  29.459  20.302  0.00  0.00    +0.000 OA
ENDROOT
TORSDOF 0
REMARK  Name = ../refined-set-2016/2bvd/2bvd_pocket.pdb
REMARK  144 active torsions:
REMARK  status: ('A' for Active; 'I' for Inactive)
REMARK    1  A    between atoms: _1  and  _3
REMARK    2  A    between atoms: _3  and  _4
REMARK    3  A    between atoms: _3  and  _6
REMARK    4  A    between atoms: _6  and  _7
REMARK    5  A    between atoms: _17  and  _19
REMARK    6  A    between atoms: _19  and  _20
REMARK    7  A    between atoms: _22  and  _24
REMARK    8  A    between atoms: _24  and  _25
REMARK    9  A    between atoms: _24  and  _27
REMARK   10  A    between atoms: _27  and  _28
REMARK   11  A    between atoms: _31  and  _33
REMARK   12  A    between atoms: _33  and  _34
REMARK   13  A    between atoms: _33  and  _36
REMARK   14  A    between atoms: _36  and  _37
REMARK   15  A    between atoms: _37  and  _38
REMARK   16  A    between atoms: _43  and  _45
REMARK   17  A    between atoms: _45  and  _46
REMARK   18  A    between atoms: _45  and  _48
REMARK   19  A    between atoms: _48  and  _49
REMARK   20  A    between atoms: _54  and  _56
REMARK   21  A    between atoms: _56  and  _57
REMARK   22  A    between atoms: _56  and  _59
REMARK   23  A    between atoms: _59  and  _60
REMARK   24  A    between atoms: _60  and  _61
REMARK   25  A    between atoms: _66  and  _68
REMARK   26  A    between atoms: _68  and  _69
REMARK   27  A    between atoms: _68  and  _71
REMARK   28  A    between atoms: _71  and  _72
REMARK   29  A    between atoms: _78  and  _80
REMARK   30  A    between atoms: _80  and  _81
REMARK   31  A    between atoms: _80  and  _83
REMARK   32  A    between atoms: _83  and  _84
REMARK   33  A    between atoms: _87  and  _89
REMARK   34  A    between atoms: _89  and  _90
REMARK   35  A    between atoms: _89  and  _92
REMARK   36  A    between atoms: _92  and  _93
REMARK   37  A    between atoms: _98  and  _100
REMARK   38  A    between atoms: _100  and  _101
REMARK   39  A    between atoms: _100  and  _103
REMARK   40  A    between atoms: _103  and  _104
REMARK   41  A    between atoms: _107  and  _109
REMARK   42  A    between atoms: _109  and  _110
REMARK   43  A    between atoms: _109  and  _112
REMARK   44  A    between atoms: _112  and  _113
REMARK   45  A    between atoms: _113  and  _114
REMARK   46  A    between atoms: _117  and  _119
REMARK   47  A    between atoms: _119  and  _120
REMARK   48  A    between atoms: _119  and  _122
REMARK   49  A    between atoms: _122  and  _123
REMARK   50  A    between atoms: _133  and  _135
REMARK   51  A    between atoms: _135  and  _136
REMARK   52  A    between atoms: _135  and  _138
REMARK   53  A    between atoms: _138  and  _139
REMARK   54  A    between atoms: _139  and  _140
REMARK   55  A    between atoms: _140  and  _141
REMARK   56  A    between atoms: _150  and  _152
REMARK   57  A    between atoms: _152  and  _153
REMARK   58  A    between atoms: _152  and  _155
REMARK   59  A    between atoms: _155  and  _156
REMARK   60  A    between atoms: _161  and  _163
REMARK   61  A    between atoms: _163  and  _164
REMARK   62  A    between atoms: _163  and  _166
REMARK   63  A    between atoms: _166  and  _167
REMARK   64  A    between atoms: _167  and  _168
REMARK   65  A    between atoms: _171  and  _173
REMARK   66  A    between atoms: _173  and  _174
REMARK   67  A    between atoms: _173  and  _176
REMARK   68  A    between atoms: _176  and  _177
REMARK   69  A    between atoms: _187  and  _189
REMARK   70  A    between atoms: _189  and  _190
REMARK   71  A    between atoms: _189  and  _192
REMARK   72  A    between atoms: _192  and  _193
REMARK   73  A    between atoms: _198  and  _199
REMARK   74  A    between atoms: _201  and  _203
REMARK   75  A    between atoms: _203  and  _204
REMARK   76  A    between atoms: _203  and  _206
REMARK   77  A    between atoms: _206  and  _207
REMARK   78  A    between atoms: _217  and  _219
REMARK   79  A    between atoms: _219  and  _220
REMARK   80  A    between atoms: _219  and  _222
REMARK   81  A    between atoms: _222  and  _223
REMARK   82  A    between atoms: _228  and  _230
REMARK   83  A    between atoms: _230  and  _231
REMARK   84  A    between atoms: _230  and  _233
REMARK   85  A    between atoms: _233  and  _234
REMARK   86  A    between atoms: _239  and  _241
REMARK   87  A    between atoms: _241  and  _242
REMARK   88  A    between atoms: _241  and  _244
REMARK   89  A    between atoms: _244  and  _245
REMARK   90  A    between atoms: _248  and  _250
REMARK   91  A    between atoms: _250  and  _251
REMARK   92  A    between atoms: _253  and  _255
REMARK   93  A    between atoms: _255  and  _256
REMARK   94  A    between atoms: _255  and  _258
REMARK   95  A    between atoms: _258  and  _259
REMARK   96  A    between atoms: _264  and  _265
REMARK   97  A    between atoms: _267  and  _269
REMARK   98  A    between atoms: _269  and  _270
REMARK   99  A    between atoms: _269  and  _272
REMARK  100  A    between atoms: _272  and  _273
REMARK  101  A    between atoms: _283  and  _285
REMARK  102  A    between atoms: _285  and  _286
REMARK  103  A    between atoms: _285  and  _288
REMARK  104  A    between atoms: _288  and  _289
REMARK  105  A    between atoms: _289  and  _290
REMARK  106  A    between atoms: _293  and  _295
REMARK  107  A    between atoms: _295  and  _296
REMARK  108  A    between atoms: _295  and  _298
REMARK  109  A    between atoms: _298  and  _299
REMARK  110  A    between atoms: _305  and  _307
REMARK  111  A    between atoms: _307  and  _308
REMARK  112  A    between atoms: _311  and  _313
REMARK  113  A    between atoms: _313  and  _314
REMARK  114  A    between atoms: _313  and  _316
REMARK  115  A    between atoms: _316  and  _317
REMARK  116  A    between atoms: _323  and  _325
REMARK  117  A    between atoms: _325  and  _326
REMARK  118  A    between atoms: _325  and  _328
REMARK  119  A    between atoms: _328  and  _329
REMARK  120  A    between atoms: _334  and  _336
REMARK  121  A    between atoms: _336  and  _337
REMARK  122  A    between atoms: _336  and  _339
REMARK  123  A    between atoms: _339  and  _340
REMARK  124  A    between atoms: _340  and  _341
REMARK  125  A    between atoms: _344  and  _346
REMARK  126  A    between atoms: _346  and  _347
REMARK  127  A    between atoms: _346  and  _349
REMARK  128  A    between atoms: _349  and  _350
REMARK  129  A    between atoms: _350  and  _351
REMARK  130  A    between atoms: _351  and  _352
REMARK  131  A    between atoms: _352  and  _353
REMARK  132  A    between atoms: _357  and  _359
REMARK  133  A    between atoms: _359  and  _360
REMARK  134  A    between atoms: _359  and  _362
REMARK  135  A    between atoms: _362  and  _363
REMARK  136  A    between atoms: _363  and  _364
REMARK  137  A    between atoms: _367  and  _369
REMARK  138  A    between atoms: _369  and  _370
REMARK  139  A    between atoms: _369  and  _372
REMARK  140  A    between atoms: _372  and  _373
REMARK  141  A    between atoms: _376  and  _378
REMARK  142  A    between atoms: _378  and  _379
REMARK  143  A    between atoms: _378  and  _381
REMARK  144  A    between atoms: _381  and  _382
REMARK                            x       y       z     vdW  Elec       q    Type
REMARK                         _______ _______ _______ _____ _____    ______ ____
ROOT
ATOM      1  O   HOH     1      31.629  32.761  19.346  0.00  0.00    +0.000 OA
ENDROOT
TORSDOF 0
REMARK  Name = ../refined-set-2016/2bvd/2bvd_pocket.pdb
REMARK  144 active torsions:
REMARK  status: ('A' for Active; 'I' for Inactive)
REMARK    1  A    between atoms: _1  and  _3
REMARK    2  A    between atoms: _3  and  _4
REMARK    3  A    between atoms: _3  and  _6
REMARK    4  A    between atoms: _6  and  _7
REMARK    5  A    between atoms: _17  and  _19
REMARK    6  A    between atoms: _19  and  _20
REMARK    7  A    between atoms: _22  and  _24
REMARK    8  A    between atoms: _24  and  _25
REMARK    9  A    between atoms: _24  and  _27
REMARK   10  A    between atoms: _27  and  _28
REMARK   11  A    between atoms: _31  and  _33
REMARK   12  A    between atoms: _33  and  _34
REMARK   13  A    between atoms: _33  and  _36
REMARK   14  A    between atoms: _36  and  _37
REMARK   15  A    between atoms: _37  and  _38
REMARK   16  A    between atoms: _43  and  _45
REMARK   17  A    between atoms: _45  and  _46
REMARK   18  A    between atoms: _45  and  _48
REMARK   19  A    between atoms: _48  and  _49
REMARK   20  A    between atoms: _54  and  _56
REMARK   21  A    between atoms: _56  and  _57
REMARK   22  A    between atoms: _56  and  _59
REMARK   23  A    between atoms: _59  and  _60
REMARK   24  A    between atoms: _60  and  _61
REMARK   25  A    between atoms: _66  and  _68
REMARK   26  A    between atoms: _68  and  _69
REMARK   27  A    between atoms: _68  and  _71
REMARK   28  A    between atoms: _71  and  _72
REMARK   29  A    between atoms: _78  and  _80
REMARK   30  A    between atoms: _80  and  _81
REMARK   31  A    between atoms: _80  and  _83
REMARK   32  A    between atoms: _83  and  _84
REMARK   33  A    between atoms: _87  and  _89
REMARK   34  A    between atoms: _89  and  _90
REMARK   35  A    between atoms: _89  and  _92
REMARK   36  A    between atoms: _92  and  _93
REMARK   37  A    between atoms: _98  and  _100
REMARK   38  A    between atoms: _100  and  _101
REMARK   39  A    between atoms: _100  and  _103
REMARK   40  A    between atoms: _103  and  _104
REMARK   41  A    between atoms: _107  and  _109
REMARK   42  A    between atoms: _109  and  _110
REMARK   43  A    between atoms: _109  and  _112
REMARK   44  A    between atoms: _112  and  _113
REMARK   45  A    between atoms: _113  and  _114
REMARK   46  A    between atoms: _117  and  _119
REMARK   47  A    between atoms: _119  and  _120
REMARK   48  A    between atoms: _119  and  _122
REMARK   49  A    between atoms: _122  and  _123
REMARK   50  A    between atoms: _133  and  _135
REMARK   51  A    between atoms: _135  and  _136
REMARK   52  A    between atoms: _135  and  _138
REMARK   53  A    between atoms: _138  and  _139
REMARK   54  A    between atoms: _139  and  _140
REMARK   55  A    between atoms: _140  and  _141
REMARK   56  A    between atoms: _150  and  _152
REMARK   57  A    between atoms: _152  and  _153
REMARK   58  A    between atoms: _152  and  _155
REMARK   59  A    between atoms: _155  and  _156
REMARK   60  A    between atoms: _161  and  _163
REMARK   61  A    between atoms: _163  and  _164
REMARK   62  A    between atoms: _163  and  _166
REMARK   63  A    between atoms: _166  and  _167
REMARK   64  A    between atoms: _167  and  _168
REMARK   65  A    between atoms: _171  and  _173
REMARK   66  A    between atoms: _173  and  _174
REMARK   67  A    between atoms: _173  and  _176
REMARK   68  A    between atoms: _176  and  _177
REMARK   69  A    between atoms: _187  and  _189
REMARK   70  A    between atoms: _189  and  _190
REMARK   71  A    between atoms: _189  and  _192
REMARK   72  A    between atoms: _192  and  _193
REMARK   73  A    between atoms: _198  and  _199
REMARK   74  A    between atoms: _201  and  _203
REMARK   75  A    between atoms: _203  and  _204
REMARK   76  A    between atoms: _203  and  _206
REMARK   77  A    between atoms: _206  and  _207
REMARK   78  A    between atoms: _217  and  _219
REMARK   79  A    between atoms: _219  and  _220
REMARK   80  A    between atoms: _219  and  _222
REMARK   81  A    between atoms: _222  and  _223
REMARK   82  A    between atoms: _228  and  _230
REMARK   83  A    between atoms: _230  and  _231
REMARK   84  A    between atoms: _230  and  _233
REMARK   85  A    between atoms: _233  and  _234
REMARK   86  A    between atoms: _239  and  _241
REMARK   87  A    between atoms: _241  and  _242
REMARK   88  A    between atoms: _241  and  _244
REMARK   89  A    between atoms: _244  and  _245
REMARK   90  A    between atoms: _248  and  _250
REMARK   91  A    between atoms: _250  and  _251
REMARK   92  A    between atoms: _253  and  _255
REMARK   93  A    between atoms: _255  and  _256
REMARK   94  A    between atoms: _255  and  _258
REMARK   95  A    between atoms: _258  and  _259
REMARK   96  A    between atoms: _264  and  _265
REMARK   97  A    between atoms: _267  and  _269
REMARK   98  A    between atoms: _269  and  _270
REMARK   99  A    between atoms: _269  and  _272
REMARK  100  A    between atoms: _272  and  _273
REMARK  101  A    between atoms: _283  and  _285
REMARK  102  A    between atoms: _285  and  _286
REMARK  103  A    between atoms: _285  and  _288
REMARK  104  A    between atoms: _288  and  _289
REMARK  105  A    between atoms: _289  and  _290
REMARK  106  A    between atoms: _293  and  _295
REMARK  107  A    between atoms: _295  and  _296
REMARK  108  A    between atoms: _295  and  _298
REMARK  109  A    between atoms: _298  and  _299
REMARK  110  A    between atoms: _305  and  _307
REMARK  111  A    between atoms: _307  and  _308
REMARK  112  A    between atoms: _311  and  _313
REMARK  113  A    between atoms: _313  and  _314
REMARK  114  A    between atoms: _313  and  _316
REMARK  115  A    between atoms: _316  and  _317
REMARK  116  A    between atoms: _323  and  _325
REMARK  117  A    between atoms: _325  and  _326
REMARK  118  A    between atoms: _325  and  _328
REMARK  119  A    between atoms: _328  and  _329
REMARK  120  A    between atoms: _334  and  _336
REMARK  121  A    between atoms: _336  and  _337
REMARK  122  A    between atoms: _336  and  _339
REMARK  123  A    between atoms: _339  and  _340
REMARK  124  A    between atoms: _340  and  _341
REMARK  125  A    between atoms: _344  and  _346
REMARK  126  A    between atoms: _346  and  _347
REMARK  127  A    between atoms: _346  and  _349
REMARK  128  A    between atoms: _349  and  _350
REMARK  129  A    between atoms: _350  and  _351
REMARK  130  A    between atoms: _351  and  _352
REMARK  131  A    between atoms: _352  and  _353
REMARK  132  A    between atoms: _357  and  _359
REMARK  133  A    between atoms: _359  and  _360
REMARK  134  A    between atoms: _359  and  _362
REMARK  135  A    between atoms: _362  and  _363
REMARK  136  A    between atoms: _363  and  _364
REMARK  137  A    between atoms: _367  and  _369
REMARK  138  A    between atoms: _369  and  _370
REMARK  139  A    between atoms: _369  and  _372
REMARK  140  A    between atoms: _372  and  _373
REMARK  141  A    between atoms: _376  and  _378
REMARK  142  A    between atoms: _378  and  _379
REMARK  143  A    between atoms: _378  and  _381
REMARK  144  A    between atoms: _381  and  _382
REMARK                            x       y       z     vdW  Elec       q    Type
REMARK                         _______ _______ _______ _____ _____    ______ ____
ROOT
ATOM      1  O   HOH     1      32.507  33.147  17.106  0.00  0.00    +0.000 OA
ENDROOT
TORSDOF 0
REMARK  Name = ../refined-set-2016/2bvd/2bvd_pocket.pdb
REMARK  144 active torsions:
REMARK  status: ('A' for Active; 'I' for Inactive)
REMARK    1  A    between atoms: _1  and  _3
REMARK    2  A    between atoms: _3  and  _4
REMARK    3  A    between atoms: _3  and  _6
REMARK    4  A    between atoms: _6  and  _7
REMARK    5  A    between atoms: _17  and  _19
REMARK    6  A    between atoms: _19  and  _20
REMARK    7  A    between atoms: _22  and  _24
REMARK    8  A    between atoms: _24  and  _25
REMARK    9  A    between atoms: _24  and  _27
REMARK   10  A    between atoms: _27  and  _28
REMARK   11  A    between atoms: _31  and  _33
REMARK   12  A    between atoms: _33  and  _34
REMARK   13  A    between atoms: _33  and  _36
REMARK   14  A    between atoms: _36  and  _37
REMARK   15  A    between atoms: _37  and  _38
REMARK   16  A    between atoms: _43  and  _45
REMARK   17  A    between atoms: _45  and  _46
REMARK   18  A    between atoms: _45  and  _48
REMARK   19  A    between atoms: _48  and  _49
REMARK   20  A    between atoms: _54  and  _56
REMARK   21  A    between atoms: _56  and  _57
REMARK   22  A    between atoms: _56  and  _59
REMARK   23  A    between atoms: _59  and  _60
REMARK   24  A    between atoms: _60  and  _61
REMARK   25  A    between atoms: _66  and  _68
REMARK   26  A    between atoms: _68  and  _69
REMARK   27  A    between atoms: _68  and  _71
REMARK   28  A    between atoms: _71  and  _72
REMARK   29  A    between atoms: _78  and  _80
REMARK   30  A    between atoms: _80  and  _81
REMARK   31  A    between atoms: _80  and  _83
REMARK   32  A    between atoms: _83  and  _84
REMARK   33  A    between atoms: _87  and  _89
REMARK   34  A    between atoms: _89  and  _90
REMARK   35  A    between atoms: _89  and  _92
REMARK   36  A    between atoms: _92  and  _93
REMARK   37  A    between atoms: _98  and  _100
REMARK   38  A    between atoms: _100  and  _101
REMARK   39  A    between atoms: _100  and  _103
REMARK   40  A    between atoms: _103  and  _104
REMARK   41  A    between atoms: _107  and  _109
REMARK   42  A    between atoms: _109  and  _110
REMARK   43  A    between atoms: _109  and  _112
REMARK   44  A    between atoms: _112  and  _113
REMARK   45  A    between atoms: _113  and  _114
REMARK   46  A    between atoms: _117  and  _119
REMARK   47  A    between atoms: _119  and  _120
REMARK   48  A    between atoms: _119  and  _122
REMARK   49  A    between atoms: _122  and  _123
REMARK   50  A    between atoms: _133  and  _135
REMARK   51  A    between atoms: _135  and  _136
REMARK   52  A    between atoms: _135  and  _138
REMARK   53  A    between atoms: _138  and  _139
REMARK   54  A    between atoms: _139  and  _140
REMARK   55  A    between atoms: _140  and  _141
REMARK   56  A    between atoms: _150  and  _152
REMARK   57  A    between atoms: _152  and  _153
REMARK   58  A    between atoms: _152  and  _155
REMARK   59  A    between atoms: _155  and  _156
REMARK   60  A    between atoms: _161  and  _163
REMARK   61  A    between atoms: _163  and  _164
REMARK   62  A    between atoms: _163  and  _166
REMARK   63  A    between atoms: _166  and  _167
REMARK   64  A    between atoms: _167  and  _168
REMARK   65  A    between atoms: _171  and  _173
REMARK   66  A    between atoms: _173  and  _174
REMARK   67  A    between atoms: _173  and  _176
REMARK   68  A    between atoms: _176  and  _177
REMARK   69  A    between atoms: _187  and  _189
REMARK   70  A    between atoms: _189  and  _190
REMARK   71  A    between atoms: _189  and  _192
REMARK   72  A    between atoms: _192  and  _193
REMARK   73  A    between atoms: _198  and  _199
REMARK   74  A    between atoms: _201  and  _203
REMARK   75  A    between atoms: _203  and  _204
REMARK   76  A    between atoms: _203  and  _206
REMARK   77  A    between atoms: _206  and  _207
REMARK   78  A    between atoms: _217  and  _219
REMARK   79  A    between atoms: _219  and  _220
REMARK   80  A    between atoms: _219  and  _222
REMARK   81  A    between atoms: _222  and  _223
REMARK   82  A    between atoms: _228  and  _230
REMARK   83  A    between atoms: _230  and  _231
REMARK   84  A    between atoms: _230  and  _233
REMARK   85  A    between atoms: _233  and  _234
REMARK   86  A    between atoms: _239  and  _241
REMARK   87  A    between atoms: _241  and  _242
REMARK   88  A    between atoms: _241  and  _244
REMARK   89  A    between atoms: _244  and  _245
REMARK   90  A    between atoms: _248  and  _250
REMARK   91  A    between atoms: _250  and  _251
REMARK   92  A    between atoms: _253  and  _255
REMARK   93  A    between atoms: _255  and  _256
REMARK   94  A    between atoms: _255  and  _258
REMARK   95  A    between atoms: _258  and  _259
REMARK   96  A    between atoms: _264  and  _265
REMARK   97  A    between atoms: _267  and  _269
REMARK   98  A    between atoms: _269  and  _270
REMARK   99  A    between atoms: _269  and  _272
REMARK  100  A    between atoms: _272  and  _273
REMARK  101  A    between atoms: _283  and  _285
REMARK  102  A    between atoms: _285  and  _286
REMARK  103  A    between atoms: _285  and  _288
REMARK  104  A    between atoms: _288  and  _289
REMARK  105  A    between atoms: _289  and  _290
REMARK  106  A    between atoms: _293  and  _295
REMARK  107  A    between atoms: _295  and  _296
REMARK  108  A    between atoms: _295  and  _298
REMARK  109  A    between atoms: _298  and  _299
REMARK  110  A    between atoms: _305  and  _307
REMARK  111  A    between atoms: _307  and  _308
REMARK  112  A    between atoms: _311  and  _313
REMARK  113  A    between atoms: _313  and  _314
REMARK  114  A    between atoms: _313  and  _316
REMARK  115  A    between atoms: _316  and  _317
REMARK  116  A    between atoms: _323  and  _325
REMARK  117  A    between atoms: _325  and  _326
REMARK  118  A    between atoms: _325  and  _328
REMARK  119  A    between atoms: _328  and  _329
REMARK  120  A    between atoms: _334  and  _336
REMARK  121  A    between atoms: _336  and  _337
REMARK  122  A    between atoms: _336  and  _339
REMARK  123  A    between atoms: _339  and  _340
REMARK  124  A    between atoms: _340  and  _341
REMARK  125  A    between atoms: _344  and  _346
REMARK  126  A    between atoms: _346  and  _347
REMARK  127  A    between atoms: _346  and  _349
REMARK  128  A    between atoms: _349  and  _350
REMARK  129  A    between atoms: _350  and  _351
REMARK  130  A    between atoms: _351  and  _352
REMARK  131  A    between atoms: _352  and  _353
REMARK  132  A    between atoms: _357  and  _359
REMARK  133  A    between atoms: _359  and  _360
REMARK  134  A    between atoms: _359  and  _362
REMARK  135  A    between atoms: _362  and  _363
REMARK  136  A    between atoms: _363  and  _364
REMARK  137  A    between atoms: _367  and  _369
REMARK  138  A    between atoms: _369  and  _370
REMARK  139  A    between atoms: _369  and  _372
REMARK  140  A    between atoms: _372  and  _373
REMARK  141  A    between atoms: _376  and  _378
REMARK  142  A    between atoms: _378  and  _379
REMARK  143  A    between atoms: _378  and  _381
REMARK  144  A    between atoms: _381  and  _382
REMARK                            x       y       z     vdW  Elec       q    Type
REMARK                         _______ _______ _______ _____ _____    ______ ____
ROOT
ATOM      1  O   HOH     1      28.656  35.225  16.652  0.00  0.00    +0.000 OA
ENDROOT
TORSDOF 0
REMARK  Name = ../refined-set-2016/2bvd/2bvd_pocket.pdb
REMARK  144 active torsions:
REMARK  status: ('A' for Active; 'I' for Inactive)
REMARK    1  A    between atoms: _1  and  _3
REMARK    2  A    between atoms: _3  and  _4
REMARK    3  A    between atoms: _3  and  _6
REMARK    4  A    between atoms: _6  and  _7
REMARK    5  A    between atoms: _17  and  _19
REMARK    6  A    between atoms: _19  and  _20
REMARK    7  A    between atoms: _22  and  _24
REMARK    8  A    between atoms: _24  and  _25
REMARK    9  A    between atoms: _24  and  _27
REMARK   10  A    between atoms: _27  and  _28
REMARK   11  A    between atoms: _31  and  _33
REMARK   12  A    between atoms: _33  and  _34
REMARK   13  A    between atoms: _33  and  _36
REMARK   14  A    between atoms: _36  and  _37
REMARK   15  A    between atoms: _37  and  _38
REMARK   16  A    between atoms: _43  and  _45
REMARK   17  A    between atoms: _45  and  _46
REMARK   18  A    between atoms: _45  and  _48
REMARK   19  A    between atoms: _48  and  _49
REMARK   20  A    between atoms: _54  and  _56
REMARK   21  A    between atoms: _56  and  _57
REMARK   22  A    between atoms: _56  and  _59
REMARK   23  A    between atoms: _59  and  _60
REMARK   24  A    between atoms: _60  and  _61
REMARK   25  A    between atoms: _66  and  _68
REMARK   26  A    between atoms: _68  and  _69
REMARK   27  A    between atoms: _68  and  _71
REMARK   28  A    between atoms: _71  and  _72
REMARK   29  A    between atoms: _78  and  _80
REMARK   30  A    between atoms: _80  and  _81
REMARK   31  A    between atoms: _80  and  _83
REMARK   32  A    between atoms: _83  and  _84
REMARK   33  A    between atoms: _87  and  _89
REMARK   34  A    between atoms: _89  and  _90
REMARK   35  A    between atoms: _89  and  _92
REMARK   36  A    between atoms: _92  and  _93
REMARK   37  A    between atoms: _98  and  _100
REMARK   38  A    between atoms: _100  and  _101
REMARK   39  A    between atoms: _100  and  _103
REMARK   40  A    between atoms: _103  and  _104
REMARK   41  A    between atoms: _107  and  _109
REMARK   42  A    between atoms: _109  and  _110
REMARK   43  A    between atoms: _109  and  _112
REMARK   44  A    between atoms: _112  and  _113
REMARK   45  A    between atoms: _113  and  _114
REMARK   46  A    between atoms: _117  and  _119
REMARK   47  A    between atoms: _119  and  _120
REMARK   48  A    between atoms: _119  and  _122
REMARK   49  A    between atoms: _122  and  _123
REMARK   50  A    between atoms: _133  and  _135
REMARK   51  A    between atoms: _135  and  _136
REMARK   52  A    between atoms: _135  and  _138
REMARK   53  A    between atoms: _138  and  _139
REMARK   54  A    between atoms: _139  and  _140
REMARK   55  A    between atoms: _140  and  _141
REMARK   56  A    between atoms: _150  and  _152
REMARK   57  A    between atoms: _152  and  _153
REMARK   58  A    between atoms: _152  and  _155
REMARK   59  A    between atoms: _155  and  _156
REMARK   60  A    between atoms: _161  and  _163
REMARK   61  A    between atoms: _163  and  _164
REMARK   62  A    between atoms: _163  and  _166
REMARK   63  A    between atoms: _166  and  _167
REMARK   64  A    between atoms: _167  and  _168
REMARK   65  A    between atoms: _171  and  _173
REMARK   66  A    between atoms: _173  and  _174
REMARK   67  A    between atoms: _173  and  _176
REMARK   68  A    between atoms: _176  and  _177
REMARK   69  A    between atoms: _187  and  _189
REMARK   70  A    between atoms: _189  and  _190
REMARK   71  A    between atoms: _189  and  _192
REMARK   72  A    between atoms: _192  and  _193
REMARK   73  A    between atoms: _198  and  _199
REMARK   74  A    between atoms: _201  and  _203
REMARK   75  A    between atoms: _203  and  _204
REMARK   76  A    between atoms: _203  and  _206
REMARK   77  A    between atoms: _206  and  _207
REMARK   78  A    between atoms: _217  and  _219
REMARK   79  A    between atoms: _219  and  _220
REMARK   80  A    between atoms: _219  and  _222
REMARK   81  A    between atoms: _222  and  _223
REMARK   82  A    between atoms: _228  and  _230
REMARK   83  A    between atoms: _230  and  _231
REMARK   84  A    between atoms: _230  and  _233
REMARK   85  A    between atoms: _233  and  _234
REMARK   86  A    between atoms: _239  and  _241
REMARK   87  A    between atoms: _241  and  _242
REMARK   88  A    between atoms: _241  and  _244
REMARK   89  A    between atoms: _244  and  _245
REMARK   90  A    between atoms: _248  and  _250
REMARK   91  A    between atoms: _250  and  _251
REMARK   92  A    between atoms: _253  and  _255
REMARK   93  A    between atoms: _255  and  _256
REMARK   94  A    between atoms: _255  and  _258
REMARK   95  A    between atoms: _258  and  _259
REMARK   96  A    between atoms: _264  and  _265
REMARK   97  A    between atoms: _267  and  _269
REMARK   98  A    between atoms: _269  and  _270
REMARK   99  A    between atoms: _269  and  _272
REMARK  100  A    between atoms: _272  and  _273
REMARK  101  A    between atoms: _283  and  _285
REMARK  102  A    between atoms: _285  and  _286
REMARK  103  A    between atoms: _285  and  _288
REMARK  104  A    between atoms: _288  and  _289
REMARK  105  A    between atoms: _289  and  _290
REMARK  106  A    between atoms: _293  and  _295
REMARK  107  A    between atoms: _295  and  _296
REMARK  108  A    between atoms: _295  and  _298
REMARK  109  A    between atoms: _298  and  _299
REMARK  110  A    between atoms: _305  and  _307
REMARK  111  A    between atoms: _307  and  _308
REMARK  112  A    between atoms: _311  and  _313
REMARK  113  A    between atoms: _313  and  _314
REMARK  114  A    between atoms: _313  and  _316
REMARK  115  A    between atoms: _316  and  _317
REMARK  116  A    between atoms: _323  and  _325
REMARK  117  A    between atoms: _325  and  _326
REMARK  118  A    between atoms: _325  and  _328
REMARK  119  A    between atoms: _328  and  _329
REMARK  120  A    between atoms: _334  and  _336
REMARK  121  A    between atoms: _336  and  _337
REMARK  122  A    between atoms: _336  and  _339
REMARK  123  A    between atoms: _339  and  _340
REMARK  124  A    between atoms: _340  and  _341
REMARK  125  A    between atoms: _344  and  _346
REMARK  126  A    between atoms: _346  and  _347
REMARK  127  A    between atoms: _346  and  _349
REMARK  128  A    between atoms: _349  and  _350
REMARK  129  A    between atoms: _350  and  _351
REMARK  130  A    between atoms: _351  and  _352
REMARK  131  A    between atoms: _352  and  _353
REMARK  132  A    between atoms: _357  and  _359
REMARK  133  A    between atoms: _359  and  _360
REMARK  134  A    between atoms: _359  and  _362
REMARK  135  A    between atoms: _362  and  _363
REMARK  136  A    between atoms: _363  and  _364
REMARK  137  A    between atoms: _367  and  _369
REMARK  138  A    between atoms: _369  and  _370
REMARK  139  A    between atoms: _369  and  _372
REMARK  140  A    between atoms: _372  and  _373
REMARK  141  A    between atoms: _376  and  _378
REMARK  142  A    between atoms: _378  and  _379
REMARK  143  A    between atoms: _378  and  _381
REMARK  144  A    between atoms: _381  and  _382
REMARK                            x       y       z     vdW  Elec       q    Type
REMARK                         _______ _______ _______ _____ _____    ______ ____
ROOT
ATOM      1  O   HOH     1      31.080  39.374  18.647  0.00  0.00    +0.000 OA
ENDROOT
TORSDOF 0
REMARK  Name = ../refined-set-2016/2bvd/2bvd_pocket.pdb
REMARK  144 active torsions:
REMARK  status: ('A' for Active; 'I' for Inactive)
REMARK    1  A    between atoms: _1  and  _3
REMARK    2  A    between atoms: _3  and  _4
REMARK    3  A    between atoms: _3  and  _6
REMARK    4  A    between atoms: _6  and  _7
REMARK    5  A    between atoms: _17  and  _19
REMARK    6  A    between atoms: _19  and  _20
REMARK    7  A    between atoms: _22  and  _24
REMARK    8  A    between atoms: _24  and  _25
REMARK    9  A    between atoms: _24  and  _27
REMARK   10  A    between atoms: _27  and  _28
REMARK   11  A    between atoms: _31  and  _33
REMARK   12  A    between atoms: _33  and  _34
REMARK   13  A    between atoms: _33  and  _36
REMARK   14  A    between atoms: _36  and  _37
REMARK   15  A    between atoms: _37  and  _38
REMARK   16  A    between atoms: _43  and  _45
REMARK   17  A    between atoms: _45  and  _46
REMARK   18  A    between atoms: _45  and  _48
REMARK   19  A    between atoms: _48  and  _49
REMARK   20  A    between atoms: _54  and  _56
REMARK   21  A    between atoms: _56  and  _57
REMARK   22  A    between atoms: _56  and  _59
REMARK   23  A    between atoms: _59  and  _60
REMARK   24  A    between atoms: _60  and  _61
REMARK   25  A    between atoms: _66  and  _68
REMARK   26  A    between atoms: _68  and  _69
REMARK   27  A    between atoms: _68  and  _71
REMARK   28  A    between atoms: _71  and  _72
REMARK   29  A    between atoms: _78  and  _80
REMARK   30  A    between atoms: _80  and  _81
REMARK   31  A    between atoms: _80  and  _83
REMARK   32  A    between atoms: _83  and  _84
REMARK   33  A    between atoms: _87  and  _89
REMARK   34  A    between atoms: _89  and  _90
REMARK   35  A    between atoms: _89  and  _92
REMARK   36  A    between atoms: _92  and  _93
REMARK   37  A    between atoms: _98  and  _100
REMARK   38  A    between atoms: _100  and  _101
REMARK   39  A    between atoms: _100  and  _103
REMARK   40  A    between atoms: _103  and  _104
REMARK   41  A    between atoms: _107  and  _109
REMARK   42  A    between atoms: _109  and  _110
REMARK   43  A    between atoms: _109  and  _112
REMARK   44  A    between atoms: _112  and  _113
REMARK   45  A    between atoms: _113  and  _114
REMARK   46  A    between atoms: _117  and  _119
REMARK   47  A    between atoms: _119  and  _120
REMARK   48  A    between atoms: _119  and  _122
REMARK   49  A    between atoms: _122  and  _123
REMARK   50  A    between atoms: _133  and  _135
REMARK   51  A    between atoms: _135  and  _136
REMARK   52  A    between atoms: _135  and  _138
REMARK   53  A    between atoms: _138  and  _139
REMARK   54  A    between atoms: _139  and  _140
REMARK   55  A    between atoms: _140  and  _141
REMARK   56  A    between atoms: _150  and  _152
REMARK   57  A    between atoms: _152  and  _153
REMARK   58  A    between atoms: _152  and  _155
REMARK   59  A    between atoms: _155  and  _156
REMARK   60  A    between atoms: _161  and  _163
REMARK   61  A    between atoms: _163  and  _164
REMARK   62  A    between atoms: _163  and  _166
REMARK   63  A    between atoms: _166  and  _167
REMARK   64  A    between atoms: _167  and  _168
REMARK   65  A    between atoms: _171  and  _173
REMARK   66  A    between atoms: _173  and  _174
REMARK   67  A    between atoms: _173  and  _176
REMARK   68  A    between atoms: _176  and  _177
REMARK   69  A    between atoms: _187  and  _189
REMARK   70  A    between atoms: _189  and  _190
REMARK   71  A    between atoms: _189  and  _192
REMARK   72  A    between atoms: _192  and  _193
REMARK   73  A    between atoms: _198  and  _199
REMARK   74  A    between atoms: _201  and  _203
REMARK   75  A    between atoms: _203  and  _204
REMARK   76  A    between atoms: _203  and  _206
REMARK   77  A    between atoms: _206  and  _207
REMARK   78  A    between atoms: _217  and  _219
REMARK   79  A    between atoms: _219  and  _220
REMARK   80  A    between atoms: _219  and  _222
REMARK   81  A    between atoms: _222  and  _223
REMARK   82  A    between atoms: _228  and  _230
REMARK   83  A    between atoms: _230  and  _231
REMARK   84  A    between atoms: _230  and  _233
REMARK   85  A    between atoms: _233  and  _234
REMARK   86  A    between atoms: _239  and  _241
REMARK   87  A    between atoms: _241  and  _242
REMARK   88  A    between atoms: _241  and  _244
REMARK   89  A    between atoms: _244  and  _245
REMARK   90  A    between atoms: _248  and  _250
REMARK   91  A    between atoms: _250  and  _251
REMARK   92  A    between atoms: _253  and  _255
REMARK   93  A    between atoms: _255  and  _256
REMARK   94  A    between atoms: _255  and  _258
REMARK   95  A    between atoms: _258  and  _259
REMARK   96  A    between atoms: _264  and  _265
REMARK   97  A    between atoms: _267  and  _269
REMARK   98  A    between atoms: _269  and  _270
REMARK   99  A    between atoms: _269  and  _272
REMARK  100  A    between atoms: _272  and  _273
REMARK  101  A    between atoms: _283  and  _285
REMARK  102  A    between atoms: _285  and  _286
REMARK  103  A    between atoms: _285  and  _288
REMARK  104  A    between atoms: _288  and  _289
REMARK  105  A    between atoms: _289  and  _290
REMARK  106  A    between atoms: _293  and  _295
REMARK  107  A    between atoms: _295  and  _296
REMARK  108  A    between atoms: _295  and  _298
REMARK  109  A    between atoms: _298  and  _299
REMARK  110  A    between atoms: _305  and  _307
REMARK  111  A    between atoms: _307  and  _308
REMARK  112  A    between atoms: _311  and  _313
REMARK  113  A    between atoms: _313  and  _314
REMARK  114  A    between atoms: _313  and  _316
REMARK  115  A    between atoms: _316  and  _317
REMARK  116  A    between atoms: _323  and  _325
REMARK  117  A    between atoms: _325  and  _326
REMARK  118  A    between atoms: _325  and  _328
REMARK  119  A    between atoms: _328  and  _329
REMARK  120  A    between atoms: _334  and  _336
REMARK  121  A    between atoms: _336  and  _337
REMARK  122  A    between atoms: _336  and  _339
REMARK  123  A    between atoms: _339  and  _340
REMARK  124  A    between atoms: _340  and  _341
REMARK  125  A    between atoms: _344  and  _346
REMARK  126  A    between atoms: _346  and  _347
REMARK  127  A    between atoms: _346  and  _349
REMARK  128  A    between atoms: _349  and  _350
REMARK  129  A    between atoms: _350  and  _351
REMARK  130  A    between atoms: _351  and  _352
REMARK  131  A    between atoms: _352  and  _353
REMARK  132  A    between atoms: _357  and  _359
REMARK  133  A    between atoms: _359  and  _360
REMARK  134  A    between atoms: _359  and  _362
REMARK  135  A    between atoms: _362  and  _363
REMARK  136  A    between atoms: _363  and  _364
REMARK  137  A    between atoms: _367  and  _369
REMARK  138  A    between atoms: _369  and  _370
REMARK  139  A    between atoms: _369  and  _372
REMARK  140  A    between atoms: _372  and  _373
REMARK  141  A    between atoms: _376  and  _378
REMARK  142  A    between atoms: _378  and  _379
REMARK  143  A    between atoms: _378  and  _381
REMARK  144  A    between atoms: _381  and  _382
REMARK                            x       y       z     vdW  Elec       q    Type
REMARK                         _______ _______ _______ _____ _____    ______ ____
ROOT
ATOM      1  O   HOH     1      20.040  31.732  25.795  0.00  0.00    +0.000 OA
ENDROOT
TORSDOF 0
REMARK  Name = ../refined-set-2016/2bvd/2bvd_pocket.pdb
REMARK  144 active torsions:
REMARK  status: ('A' for Active; 'I' for Inactive)
REMARK    1  A    between atoms: _1  and  _3
REMARK    2  A    between atoms: _3  and  _4
REMARK    3  A    between atoms: _3  and  _6
REMARK    4  A    between atoms: _6  and  _7
REMARK    5  A    between atoms: _17  and  _19
REMARK    6  A    between atoms: _19  and  _20
REMARK    7  A    between atoms: _22  and  _24
REMARK    8  A    between atoms: _24  and  _25
REMARK    9  A    between atoms: _24  and  _27
REMARK   10  A    between atoms: _27  and  _28
REMARK   11  A    between atoms: _31  and  _33
REMARK   12  A    between atoms: _33  and  _34
REMARK   13  A    between atoms: _33  and  _36
REMARK   14  A    between atoms: _36  and  _37
REMARK   15  A    between atoms: _37  and  _38
REMARK   16  A    between atoms: _43  and  _45
REMARK   17  A    between atoms: _45  and  _46
REMARK   18  A    between atoms: _45  and  _48
REMARK   19  A    between atoms: _48  and  _49
REMARK   20  A    between atoms: _54  and  _56
REMARK   21  A    between atoms: _56  and  _57
REMARK   22  A    between atoms: _56  and  _59
REMARK   23  A    between atoms: _59  and  _60
REMARK   24  A    between atoms: _60  and  _61
REMARK   25  A    between atoms: _66  and  _68
REMARK   26  A    between atoms: _68  and  _69
REMARK   27  A    between atoms: _68  and  _71
REMARK   28  A    between atoms: _71  and  _72
REMARK   29  A    between atoms: _78  and  _80
REMARK   30  A    between atoms: _80  and  _81
REMARK   31  A    between atoms: _80  and  _83
REMARK   32  A    between atoms: _83  and  _84
REMARK   33  A    between atoms: _87  and  _89
REMARK   34  A    between atoms: _89  and  _90
REMARK   35  A    between atoms: _89  and  _92
REMARK   36  A    between atoms: _92  and  _93
REMARK   37  A    between atoms: _98  and  _100
REMARK   38  A    between atoms: _100  and  _101
REMARK   39  A    between atoms: _100  and  _103
REMARK   40  A    between atoms: _103  and  _104
REMARK   41  A    between atoms: _107  and  _109
REMARK   42  A    between atoms: _109  and  _110
REMARK   43  A    between atoms: _109  and  _112
REMARK   44  A    between atoms: _112  and  _113
REMARK   45  A    between atoms: _113  and  _114
REMARK   46  A    between atoms: _117  and  _119
REMARK   47  A    between atoms: _119  and  _120
REMARK   48  A    between atoms: _119  and  _122
REMARK   49  A    between atoms: _122  and  _123
REMARK   50  A    between atoms: _133  and  _135
REMARK   51  A    between atoms: _135  and  _136
REMARK   52  A    between atoms: _135  and  _138
REMARK   53  A    between atoms: _138  and  _139
REMARK   54  A    between atoms: _139  and  _140
REMARK   55  A    between atoms: _140  and  _141
REMARK   56  A    between atoms: _150  and  _152
REMARK   57  A    between atoms: _152  and  _153
REMARK   58  A    between atoms: _152  and  _155
REMARK   59  A    between atoms: _155  and  _156
REMARK   60  A    between atoms: _161  and  _163
REMARK   61  A    between atoms: _163  and  _164
REMARK   62  A    between atoms: _163  and  _166
REMARK   63  A    between atoms: _166  and  _167
REMARK   64  A    between atoms: _167  and  _168
REMARK   65  A    between atoms: _171  and  _173
REMARK   66  A    between atoms: _173  and  _174
REMARK   67  A    between atoms: _173  and  _176
REMARK   68  A    between atoms: _176  and  _177
REMARK   69  A    between atoms: _187  and  _189
REMARK   70  A    between atoms: _189  and  _190
REMARK   71  A    between atoms: _189  and  _192
REMARK   72  A    between atoms: _192  and  _193
REMARK   73  A    between atoms: _198  and  _199
REMARK   74  A    between atoms: _201  and  _203
REMARK   75  A    between atoms: _203  and  _204
REMARK   76  A    between atoms: _203  and  _206
REMARK   77  A    between atoms: _206  and  _207
REMARK   78  A    between atoms: _217  and  _219
REMARK   79  A    between atoms: _219  and  _220
REMARK   80  A    between atoms: _219  and  _222
REMARK   81  A    between atoms: _222  and  _223
REMARK   82  A    between atoms: _228  and  _230
REMARK   83  A    between atoms: _230  and  _231
REMARK   84  A    between atoms: _230  and  _233
REMARK   85  A    between atoms: _233  and  _234
REMARK   86  A    between atoms: _239  and  _241
REMARK   87  A    between atoms: _241  and  _242
REMARK   88  A    between atoms: _241  and  _244
REMARK   89  A    between atoms: _244  and  _245
REMARK   90  A    between atoms: _248  and  _250
REMARK   91  A    between atoms: _250  and  _251
REMARK   92  A    between atoms: _253  and  _255
REMARK   93  A    between atoms: _255  and  _256
REMARK   94  A    between atoms: _255  and  _258
REMARK   95  A    between atoms: _258  and  _259
REMARK   96  A    between atoms: _264  and  _265
REMARK   97  A    between atoms: _267  and  _269
REMARK   98  A    between atoms: _269  and  _270
REMARK   99  A    between atoms: _269  and  _272
REMARK  100  A    between atoms: _272  and  _273
REMARK  101  A    between atoms: _283  and  _285
REMARK  102  A    between atoms: _285  and  _286
REMARK  103  A    between atoms: _285  and  _288
REMARK  104  A    between atoms: _288  and  _289
REMARK  105  A    between atoms: _289  and  _290
REMARK  106  A    between atoms: _293  and  _295
REMARK  107  A    between atoms: _295  and  _296
REMARK  108  A    between atoms: _295  and  _298
REMARK  109  A    between atoms: _298  and  _299
REMARK  110  A    between atoms: _305  and  _307
REMARK  111  A    between atoms: _307  and  _308
REMARK  112  A    between atoms: _311  and  _313
REMARK  113  A    between atoms: _313  and  _314
REMARK  114  A    between atoms: _313  and  _316
REMARK  115  A    between atoms: _316  and  _317
REMARK  116  A    between atoms: _323  and  _325
REMARK  117  A    between atoms: _325  and  _326
REMARK  118  A    between atoms: _325  and  _328
REMARK  119  A    between atoms: _328  and  _329
REMARK  120  A    between atoms: _334  and  _336
REMARK  121  A    between atoms: _336  and  _337
REMARK  122  A    between atoms: _336  and  _339
REMARK  123  A    between atoms: _339  and  _340
REMARK  124  A    between atoms: _340  and  _341
REMARK  125  A    between atoms: _344  and  _346
REMARK  126  A    between atoms: _346  and  _347
REMARK  127  A    between atoms: _346  and  _349
REMARK  128  A    between atoms: _349  and  _350
REMARK  129  A    between atoms: _350  and  _351
REMARK  130  A    between atoms: _351  and  _352
REMARK  131  A    between atoms: _352  and  _353
REMARK  132  A    between atoms: _357  and  _359
REMARK  133  A    between atoms: _359  and  _360
REMARK  134  A    between atoms: _359  and  _362
REMARK  135  A    between atoms: _362  and  _363
REMARK  136  A    between atoms: _363  and  _364
REMARK  137  A    between atoms: _367  and  _369
REMARK  138  A    between atoms: _369  and  _370
REMARK  139  A    between atoms: _369  and  _372
REMARK  140  A    between atoms: _372  and  _373
REMARK  141  A    between atoms: _376  and  _378
REMARK  142  A    between atoms: _378  and  _379
REMARK  143  A    between atoms: _378  and  _381
REMARK  144  A    between atoms: _381  and  _382
REMARK                            x       y       z     vdW  Elec       q    Type
REMARK                         _______ _______ _______ _____ _____    ______ ____
ROOT
ATOM      1  O   HOH     1      25.667  36.735   9.462  0.00  0.00    +0.000 OA
ENDROOT
TORSDOF 0
REMARK  Name = ../refined-set-2016/2bvd/2bvd_pocket.pdb
REMARK  144 active torsions:
REMARK  status: ('A' for Active; 'I' for Inactive)
REMARK    1  A    between atoms: _1  and  _3
REMARK    2  A    between atoms: _3  and  _4
REMARK    3  A    between atoms: _3  and  _6
REMARK    4  A    between atoms: _6  and  _7
REMARK    5  A    between atoms: _17  and  _19
REMARK    6  A    between atoms: _19  and  _20
REMARK    7  A    between atoms: _22  and  _24
REMARK    8  A    between atoms: _24  and  _25
REMARK    9  A    between atoms: _24  and  _27
REMARK   10  A    between atoms: _27  and  _28
REMARK   11  A    between atoms: _31  and  _33
REMARK   12  A    between atoms: _33  and  _34
REMARK   13  A    between atoms: _33  and  _36
REMARK   14  A    between atoms: _36  and  _37
REMARK   15  A    between atoms: _37  and  _38
REMARK   16  A    between atoms: _43  and  _45
REMARK   17  A    between atoms: _45  and  _46
REMARK   18  A    between atoms: _45  and  _48
REMARK   19  A    between atoms: _48  and  _49
REMARK   20  A    between atoms: _54  and  _56
REMARK   21  A    between atoms: _56  and  _57
REMARK   22  A    between atoms: _56  and  _59
REMARK   23  A    between atoms: _59  and  _60
REMARK   24  A    between atoms: _60  and  _61
REMARK   25  A    between atoms: _66  and  _68
REMARK   26  A    between atoms: _68  and  _69
REMARK   27  A    between atoms: _68  and  _71
REMARK   28  A    between atoms: _71  and  _72
REMARK   29  A    between atoms: _78  and  _80
REMARK   30  A    between atoms: _80  and  _81
REMARK   31  A    between atoms: _80  and  _83
REMARK   32  A    between atoms: _83  and  _84
REMARK   33  A    between atoms: _87  and  _89
REMARK   34  A    between atoms: _89  and  _90
REMARK   35  A    between atoms: _89  and  _92
REMARK   36  A    between atoms: _92  and  _93
REMARK   37  A    between atoms: _98  and  _100
REMARK   38  A    between atoms: _100  and  _101
REMARK   39  A    between atoms: _100  and  _103
REMARK   40  A    between atoms: _103  and  _104
REMARK   41  A    between atoms: _107  and  _109
REMARK   42  A    between atoms: _109  and  _110
REMARK   43  A    between atoms: _109  and  _112
REMARK   44  A    between atoms: _112  and  _113
REMARK   45  A    between atoms: _113  and  _114
REMARK   46  A    between atoms: _117  and  _119
REMARK   47  A    between atoms: _119  and  _120
REMARK   48  A    between atoms: _119  and  _122
REMARK   49  A    between atoms: _122  and  _123
REMARK   50  A    between atoms: _133  and  _135
REMARK   51  A    between atoms: _135  and  _136
REMARK   52  A    between atoms: _135  and  _138
REMARK   53  A    between atoms: _138  and  _139
REMARK   54  A    between atoms: _139  and  _140
REMARK   55  A    between atoms: _140  and  _141
REMARK   56  A    between atoms: _150  and  _152
REMARK   57  A    between atoms: _152  and  _153
REMARK   58  A    between atoms: _152  and  _155
REMARK   59  A    between atoms: _155  and  _156
REMARK   60  A    between atoms: _161  and  _163
REMARK   61  A    between atoms: _163  and  _164
REMARK   62  A    between atoms: _163  and  _166
REMARK   63  A    between atoms: _166  and  _167
REMARK   64  A    between atoms: _167  and  _168
REMARK   65  A    between atoms: _171  and  _173
REMARK   66  A    between atoms: _173  and  _174
REMARK   67  A    between atoms: _173  and  _176
REMARK   68  A    between atoms: _176  and  _177
REMARK   69  A    between atoms: _187  and  _189
REMARK   70  A    between atoms: _189  and  _190
REMARK   71  A    between atoms: _189  and  _192
REMARK   72  A    between atoms: _192  and  _193
REMARK   73  A    between atoms: _198  and  _199
REMARK   74  A    between atoms: _201  and  _203
REMARK   75  A    between atoms: _203  and  _204
REMARK   76  A    between atoms: _203  and  _206
REMARK   77  A    between atoms: _206  and  _207
REMARK   78  A    between atoms: _217  and  _219
REMARK   79  A    between atoms: _219  and  _220
REMARK   80  A    between atoms: _219  and  _222
REMARK   81  A    between atoms: _222  and  _223
REMARK   82  A    between atoms: _228  and  _230
REMARK   83  A    between atoms: _230  and  _231
REMARK   84  A    between atoms: _230  and  _233
REMARK   85  A    between atoms: _233  and  _234
REMARK   86  A    between atoms: _239  and  _241
REMARK   87  A    between atoms: _241  and  _242
REMARK   88  A    between atoms: _241  and  _244
REMARK   89  A    between atoms: _244  and  _245
REMARK   90  A    between atoms: _248  and  _250
REMARK   91  A    between atoms: _250  and  _251
REMARK   92  A    between atoms: _253  and  _255
REMARK   93  A    between atoms: _255  and  _256
REMARK   94  A    between atoms: _255  and  _258
REMARK   95  A    between atoms: _258  and  _259
REMARK   96  A    between atoms: _264  and  _265
REMARK   97  A    between atoms: _267  and  _269
REMARK   98  A    between atoms: _269  and  _270
REMARK   99  A    between atoms: _269  and  _272
REMARK  100  A    between atoms: _272  and  _273
REMARK  101  A    between atoms: _283  and  _285
REMARK  102  A    between atoms: _285  and  _286
REMARK  103  A    between atoms: _285  and  _288
REMARK  104  A    between atoms: _288  and  _289
REMARK  105  A    between atoms: _289  and  _290
REMARK  106  A    between atoms: _293  and  _295
REMARK  107  A    between atoms: _295  and  _296
REMARK  108  A    between atoms: _295  and  _298
REMARK  109  A    between atoms: _298  and  _299
REMARK  110  A    between atoms: _305  and  _307
REMARK  111  A    between atoms: _307  and  _308
REMARK  112  A    between atoms: _311  and  _313
REMARK  113  A    between atoms: _313  and  _314
REMARK  114  A    between atoms: _313  and  _316
REMARK  115  A    between atoms: _316  and  _317
REMARK  116  A    between atoms: _323  and  _325
REMARK  117  A    between atoms: _325  and  _326
REMARK  118  A    between atoms: _325  and  _328
REMARK  119  A    between atoms: _328  and  _329
REMARK  120  A    between atoms: _334  and  _336
REMARK  121  A    between atoms: _336  and  _337
REMARK  122  A    between atoms: _336  and  _339
REMARK  123  A    between atoms: _339  and  _340
REMARK  124  A    between atoms: _340  and  _341
REMARK  125  A    between atoms: _344  and  _346
REMARK  126  A    between atoms: _346  and  _347
REMARK  127  A    between atoms: _346  and  _349
REMARK  128  A    between atoms: _349  and  _350
REMARK  129  A    between atoms: _350  and  _351
REMARK  130  A    between atoms: _351  and  _352
REMARK  131  A    between atoms: _352  and  _353
REMARK  132  A    between atoms: _357  and  _359
REMARK  133  A    between atoms: _359  and  _360
REMARK  134  A    between atoms: _359  and  _362
REMARK  135  A    between atoms: _362  and  _363
REMARK  136  A    between atoms: _363  and  _364
REMARK  137  A    between atoms: _367  and  _369
REMARK  138  A    between atoms: _369  and  _370
REMARK  139  A    between atoms: _369  and  _372
REMARK  140  A    between atoms: _372  and  _373
REMARK  141  A    between atoms: _376  and  _378
REMARK  142  A    between atoms: _378  and  _379
REMARK  143  A    between atoms: _378  and  _381
REMARK  144  A    between atoms: _381  and  _382
REMARK                            x       y       z     vdW  Elec       q    Type
REMARK                         _______ _______ _______ _____ _____    ______ ____
ROOT
ATOM      1  O   HOH     1      21.391  43.021  18.517  0.00  0.00    +0.000 OA
ENDROOT
TORSDOF 0
REMARK  Name = ../refined-set-2016/2bvd/2bvd_pocket.pdb
REMARK  144 active torsions:
REMARK  status: ('A' for Active; 'I' for Inactive)
REMARK    1  A    between atoms: _1  and  _3
REMARK    2  A    between atoms: _3  and  _4
REMARK    3  A    between atoms: _3  and  _6
REMARK    4  A    between atoms: _6  and  _7
REMARK    5  A    between atoms: _17  and  _19
REMARK    6  A    between atoms: _19  and  _20
REMARK    7  A    between atoms: _22  and  _24
REMARK    8  A    between atoms: _24  and  _25
REMARK    9  A    between atoms: _24  and  _27
REMARK   10  A    between atoms: _27  and  _28
REMARK   11  A    between atoms: _31  and  _33
REMARK   12  A    between atoms: _33  and  _34
REMARK   13  A    between atoms: _33  and  _36
REMARK   14  A    between atoms: _36  and  _37
REMARK   15  A    between atoms: _37  and  _38
REMARK   16  A    between atoms: _43  and  _45
REMARK   17  A    between atoms: _45  and  _46
REMARK   18  A    between atoms: _45  and  _48
REMARK   19  A    between atoms: _48  and  _49
REMARK   20  A    between atoms: _54  and  _56
REMARK   21  A    between atoms: _56  and  _57
REMARK   22  A    between atoms: _56  and  _59
REMARK   23  A    between atoms: _59  and  _60
REMARK   24  A    between atoms: _60  and  _61
REMARK   25  A    between atoms: _66  and  _68
REMARK   26  A    between atoms: _68  and  _69
REMARK   27  A    between atoms: _68  and  _71
REMARK   28  A    between atoms: _71  and  _72
REMARK   29  A    between atoms: _78  and  _80
REMARK   30  A    between atoms: _80  and  _81
REMARK   31  A    between atoms: _80  and  _83
REMARK   32  A    between atoms: _83  and  _84
REMARK   33  A    between atoms: _87  and  _89
REMARK   34  A    between atoms: _89  and  _90
REMARK   35  A    between atoms: _89  and  _92
REMARK   36  A    between atoms: _92  and  _93
REMARK   37  A    between atoms: _98  and  _100
REMARK   38  A    between atoms: _100  and  _101
REMARK   39  A    between atoms: _100  and  _103
REMARK   40  A    between atoms: _103  and  _104
REMARK   41  A    between atoms: _107  and  _109
REMARK   42  A    between atoms: _109  and  _110
REMARK   43  A    between atoms: _109  and  _112
REMARK   44  A    between atoms: _112  and  _113
REMARK   45  A    between atoms: _113  and  _114
REMARK   46  A    between atoms: _117  and  _119
REMARK   47  A    between atoms: _119  and  _120
REMARK   48  A    between atoms: _119  and  _122
REMARK   49  A    between atoms: _122  and  _123
REMARK   50  A    between atoms: _133  and  _135
REMARK   51  A    between atoms: _135  and  _136
REMARK   52  A    between atoms: _135  and  _138
REMARK   53  A    between atoms: _138  and  _139
REMARK   54  A    between atoms: _139  and  _140
REMARK   55  A    between atoms: _140  and  _141
REMARK   56  A    between atoms: _150  and  _152
REMARK   57  A    between atoms: _152  and  _153
REMARK   58  A    between atoms: _152  and  _155
REMARK   59  A    between atoms: _155  and  _156
REMARK   60  A    between atoms: _161  and  _163
REMARK   61  A    between atoms: _163  and  _164
REMARK   62  A    between atoms: _163  and  _166
REMARK   63  A    between atoms: _166  and  _167
REMARK   64  A    between atoms: _167  and  _168
REMARK   65  A    between atoms: _171  and  _173
REMARK   66  A    between atoms: _173  and  _174
REMARK   67  A    between atoms: _173  and  _176
REMARK   68  A    between atoms: _176  and  _177
REMARK   69  A    between atoms: _187  and  _189
REMARK   70  A    between atoms: _189  and  _190
REMARK   71  A    between atoms: _189  and  _192
REMARK   72  A    between atoms: _192  and  _193
REMARK   73  A    between atoms: _198  and  _199
REMARK   74  A    between atoms: _201  and  _203
REMARK   75  A    between atoms: _203  and  _204
REMARK   76  A    between atoms: _203  and  _206
REMARK   77  A    between atoms: _206  and  _207
REMARK   78  A    between atoms: _217  and  _219
REMARK   79  A    between atoms: _219  and  _220
REMARK   80  A    between atoms: _219  and  _222
REMARK   81  A    between atoms: _222  and  _223
REMARK   82  A    between atoms: _228  and  _230
REMARK   83  A    between atoms: _230  and  _231
REMARK   84  A    between atoms: _230  and  _233
REMARK   85  A    between atoms: _233  and  _234
REMARK   86  A    between atoms: _239  and  _241
REMARK   87  A    between atoms: _241  and  _242
REMARK   88  A    between atoms: _241  and  _244
REMARK   89  A    between atoms: _244  and  _245
REMARK   90  A    between atoms: _248  and  _250
REMARK   91  A    between atoms: _250  and  _251
REMARK   92  A    between atoms: _253  and  _255
REMARK   93  A    between atoms: _255  and  _256
REMARK   94  A    between atoms: _255  and  _258
REMARK   95  A    between atoms: _258  and  _259
REMARK   96  A    between atoms: _264  and  _265
REMARK   97  A    between atoms: _267  and  _269
REMARK   98  A    between atoms: _269  and  _270
REMARK   99  A    between atoms: _269  and  _272
REMARK  100  A    between atoms: _272  and  _273
REMARK  101  A    between atoms: _283  and  _285
REMARK  102  A    between atoms: _285  and  _286
REMARK  103  A    between atoms: _285  and  _288
REMARK  104  A    between atoms: _288  and  _289
REMARK  105  A    between atoms: _289  and  _290
REMARK  106  A    between atoms: _293  and  _295
REMARK  107  A    between atoms: _295  and  _296
REMARK  108  A    between atoms: _295  and  _298
REMARK  109  A    between atoms: _298  and  _299
REMARK  110  A    between atoms: _305  and  _307
REMARK  111  A    between atoms: _307  and  _308
REMARK  112  A    between atoms: _311  and  _313
REMARK  113  A    between atoms: _313  and  _314
REMARK  114  A    between atoms: _313  and  _316
REMARK  115  A    between atoms: _316  and  _317
REMARK  116  A    between atoms: _323  and  _325
REMARK  117  A    between atoms: _325  and  _326
REMARK  118  A    between atoms: _325  and  _328
REMARK  119  A    between atoms: _328  and  _329
REMARK  120  A    between atoms: _334  and  _336
REMARK  121  A    between atoms: _336  and  _337
REMARK  122  A    between atoms: _336  and  _339
REMARK  123  A    between atoms: _339  and  _340
REMARK  124  A    between atoms: _340  and  _341
REMARK  125  A    between atoms: _344  and  _346
REMARK  126  A    between atoms: _346  and  _347
REMARK  127  A    between atoms: _346  and  _349
REMARK  128  A    between atoms: _349  and  _350
REMARK  129  A    between atoms: _350  and  _351
REMARK  130  A    between atoms: _351  and  _352
REMARK  131  A    between atoms: _352  and  _353
REMARK  132  A    between atoms: _357  and  _359
REMARK  133  A    between atoms: _359  and  _360
REMARK  134  A    between atoms: _359  and  _362
REMARK  135  A    between atoms: _362  and  _363
REMARK  136  A    between atoms: _363  and  _364
REMARK  137  A    between atoms: _367  and  _369
REMARK  138  A    between atoms: _369  and  _370
REMARK  139  A    between atoms: _369  and  _372
REMARK  140  A    between atoms: _372  and  _373
REMARK  141  A    between atoms: _376  and  _378
REMARK  142  A    between atoms: _378  and  _379
REMARK  143  A    between atoms: _378  and  _381
REMARK  144  A    between atoms: _381  and  _382
REMARK                            x       y       z     vdW  Elec       q    Type
REMARK                         _______ _______ _______ _____ _____    ______ ____
ROOT
ATOM      1  O   HOH     1      10.315  37.920  12.182  0.00  0.00    +0.000 OA
ENDROOT
TORSDOF 0
REMARK  Name = ../refined-set-2016/2bvd/2bvd_pocket.pdb
REMARK  144 active torsions:
REMARK  status: ('A' for Active; 'I' for Inactive)
REMARK    1  A    between atoms: _1  and  _3
REMARK    2  A    between atoms: _3  and  _4
REMARK    3  A    between atoms: _3  and  _6
REMARK    4  A    between atoms: _6  and  _7
REMARK    5  A    between atoms: _17  and  _19
REMARK    6  A    between atoms: _19  and  _20
REMARK    7  A    between atoms: _22  and  _24
REMARK    8  A    between atoms: _24  and  _25
REMARK    9  A    between atoms: _24  and  _27
REMARK   10  A    between atoms: _27  and  _28
REMARK   11  A    between atoms: _31  and  _33
REMARK   12  A    between atoms: _33  and  _34
REMARK   13  A    between atoms: _33  and  _36
REMARK   14  A    between atoms: _36  and  _37
REMARK   15  A    between atoms: _37  and  _38
REMARK   16  A    between atoms: _43  and  _45
REMARK   17  A    between atoms: _45  and  _46
REMARK   18  A    between atoms: _45  and  _48
REMARK   19  A    between atoms: _48  and  _49
REMARK   20  A    between atoms: _54  and  _56
REMARK   21  A    between atoms: _56  and  _57
REMARK   22  A    between atoms: _56  and  _59
REMARK   23  A    between atoms: _59  and  _60
REMARK   24  A    between atoms: _60  and  _61
REMARK   25  A    between atoms: _66  and  _68
REMARK   26  A    between atoms: _68  and  _69
REMARK   27  A    between atoms: _68  and  _71
REMARK   28  A    between atoms: _71  and  _72
REMARK   29  A    between atoms: _78  and  _80
REMARK   30  A    between atoms: _80  and  _81
REMARK   31  A    between atoms: _80  and  _83
REMARK   32  A    between atoms: _83  and  _84
REMARK   33  A    between atoms: _87  and  _89
REMARK   34  A    between atoms: _89  and  _90
REMARK   35  A    between atoms: _89  and  _92
REMARK   36  A    between atoms: _92  and  _93
REMARK   37  A    between atoms: _98  and  _100
REMARK   38  A    between atoms: _100  and  _101
REMARK   39  A    between atoms: _100  and  _103
REMARK   40  A    between atoms: _103  and  _104
REMARK   41  A    between atoms: _107  and  _109
REMARK   42  A    between atoms: _109  and  _110
REMARK   43  A    between atoms: _109  and  _112
REMARK   44  A    between atoms: _112  and  _113
REMARK   45  A    between atoms: _113  and  _114
REMARK   46  A    between atoms: _117  and  _119
REMARK   47  A    between atoms: _119  and  _120
REMARK   48  A    between atoms: _119  and  _122
REMARK   49  A    between atoms: _122  and  _123
REMARK   50  A    between atoms: _133  and  _135
REMARK   51  A    between atoms: _135  and  _136
REMARK   52  A    between atoms: _135  and  _138
REMARK   53  A    between atoms: _138  and  _139
REMARK   54  A    between atoms: _139  and  _140
REMARK   55  A    between atoms: _140  and  _141
REMARK   56  A    between atoms: _150  and  _152
REMARK   57  A    between atoms: _152  and  _153
REMARK   58  A    between atoms: _152  and  _155
REMARK   59  A    between atoms: _155  and  _156
REMARK   60  A    between atoms: _161  and  _163
REMARK   61  A    between atoms: _163  and  _164
REMARK   62  A    between atoms: _163  and  _166
REMARK   63  A    between atoms: _166  and  _167
REMARK   64  A    between atoms: _167  and  _168
REMARK   65  A    between atoms: _171  and  _173
REMARK   66  A    between atoms: _173  and  _174
REMARK   67  A    between atoms: _173  and  _176
REMARK   68  A    between atoms: _176  and  _177
REMARK   69  A    between atoms: _187  and  _189
REMARK   70  A    between atoms: _189  and  _190
REMARK   71  A    between atoms: _189  and  _192
REMARK   72  A    between atoms: _192  and  _193
REMARK   73  A    between atoms: _198  and  _199
REMARK   74  A    between atoms: _201  and  _203
REMARK   75  A    between atoms: _203  and  _204
REMARK   76  A    between atoms: _203  and  _206
REMARK   77  A    between atoms: _206  and  _207
REMARK   78  A    between atoms: _217  and  _219
REMARK   79  A    between atoms: _219  and  _220
REMARK   80  A    between atoms: _219  and  _222
REMARK   81  A    between atoms: _222  and  _223
REMARK   82  A    between atoms: _228  and  _230
REMARK   83  A    between atoms: _230  and  _231
REMARK   84  A    between atoms: _230  and  _233
REMARK   85  A    between atoms: _233  and  _234
REMARK   86  A    between atoms: _239  and  _241
REMARK   87  A    between atoms: _241  and  _242
REMARK   88  A    between atoms: _241  and  _244
REMARK   89  A    between atoms: _244  and  _245
REMARK   90  A    between atoms: _248  and  _250
REMARK   91  A    between atoms: _250  and  _251
REMARK   92  A    between atoms: _253  and  _255
REMARK   93  A    between atoms: _255  and  _256
REMARK   94  A    between atoms: _255  and  _258
REMARK   95  A    between atoms: _258  and  _259
REMARK   96  A    between atoms: _264  and  _265
REMARK   97  A    between atoms: _267  and  _269
REMARK   98  A    between atoms: _269  and  _270
REMARK   99  A    between atoms: _269  and  _272
REMARK  100  A    between atoms: _272  and  _273
REMARK  101  A    between atoms: _283  and  _285
REMARK  102  A    between atoms: _285  and  _286
REMARK  103  A    between atoms: _285  and  _288
REMARK  104  A    between atoms: _288  and  _289
REMARK  105  A    between atoms: _289  and  _290
REMARK  106  A    between atoms: _293  and  _295
REMARK  107  A    between atoms: _295  and  _296
REMARK  108  A    between atoms: _295  and  _298
REMARK  109  A    between atoms: _298  and  _299
REMARK  110  A    between atoms: _305  and  _307
REMARK  111  A    between atoms: _307  and  _308
REMARK  112  A    between atoms: _311  and  _313
REMARK  113  A    between atoms: _313  and  _314
REMARK  114  A    between atoms: _313  and  _316
REMARK  115  A    between atoms: _316  and  _317
REMARK  116  A    between atoms: _323  and  _325
REMARK  117  A    between atoms: _325  and  _326
REMARK  118  A    between atoms: _325  and  _328
REMARK  119  A    between atoms: _328  and  _329
REMARK  120  A    between atoms: _334  and  _336
REMARK  121  A    between atoms: _336  and  _337
REMARK  122  A    between atoms: _336  and  _339
REMARK  123  A    between atoms: _339  and  _340
REMARK  124  A    between atoms: _340  and  _341
REMARK  125  A    between atoms: _344  and  _346
REMARK  126  A    between atoms: _346  and  _347
REMARK  127  A    between atoms: _346  and  _349
REMARK  128  A    between atoms: _349  and  _350
REMARK  129  A    between atoms: _350  and  _351
REMARK  130  A    between atoms: _351  and  _352
REMARK  131  A    between atoms: _352  and  _353
REMARK  132  A    between atoms: _357  and  _359
REMARK  133  A    between atoms: _359  and  _360
REMARK  134  A    between atoms: _359  and  _362
REMARK  135  A    between atoms: _362  and  _363
REMARK  136  A    between atoms: _363  and  _364
REMARK  137  A    between atoms: _367  and  _369
REMARK  138  A    between atoms: _369  and  _370
REMARK  139  A    between atoms: _369  and  _372
REMARK  140  A    between atoms: _372  and  _373
REMARK  141  A    between atoms: _376  and  _378
REMARK  142  A    between atoms: _378  and  _379
REMARK  143  A    between atoms: _378  and  _381
REMARK  144  A    between atoms: _381  and  _382
REMARK                            x       y       z     vdW  Elec       q    Type
REMARK                         _______ _______ _______ _____ _____    ______ ____
ROOT
ATOM      1  O   HOH     1      10.515  34.394  12.792  0.00  0.00    +0.000 OA
ENDROOT
TORSDOF 0
REMARK  Name = ../refined-set-2016/2bvd/2bvd_pocket.pdb
REMARK  144 active torsions:
REMARK  status: ('A' for Active; 'I' for Inactive)
REMARK    1  A    between atoms: _1  and  _3
REMARK    2  A    between atoms: _3  and  _4
REMARK    3  A    between atoms: _3  and  _6
REMARK    4  A    between atoms: _6  and  _7
REMARK    5  A    between atoms: _17  and  _19
REMARK    6  A    between atoms: _19  and  _20
REMARK    7  A    between atoms: _22  and  _24
REMARK    8  A    between atoms: _24  and  _25
REMARK    9  A    between atoms: _24  and  _27
REMARK   10  A    between atoms: _27  and  _28
REMARK   11  A    between atoms: _31  and  _33
REMARK   12  A    between atoms: _33  and  _34
REMARK   13  A    between atoms: _33  and  _36
REMARK   14  A    between atoms: _36  and  _37
REMARK   15  A    between atoms: _37  and  _38
REMARK   16  A    between atoms: _43  and  _45
REMARK   17  A    between atoms: _45  and  _46
REMARK   18  A    between atoms: _45  and  _48
REMARK   19  A    between atoms: _48  and  _49
REMARK   20  A    between atoms: _54  and  _56
REMARK   21  A    between atoms: _56  and  _57
REMARK   22  A    between atoms: _56  and  _59
REMARK   23  A    between atoms: _59  and  _60
REMARK   24  A    between atoms: _60  and  _61
REMARK   25  A    between atoms: _66  and  _68
REMARK   26  A    between atoms: _68  and  _69
REMARK   27  A    between atoms: _68  and  _71
REMARK   28  A    between atoms: _71  and  _72
REMARK   29  A    between atoms: _78  and  _80
REMARK   30  A    between atoms: _80  and  _81
REMARK   31  A    between atoms: _80  and  _83
REMARK   32  A    between atoms: _83  and  _84
REMARK   33  A    between atoms: _87  and  _89
REMARK   34  A    between atoms: _89  and  _90
REMARK   35  A    between atoms: _89  and  _92
REMARK   36  A    between atoms: _92  and  _93
REMARK   37  A    between atoms: _98  and  _100
REMARK   38  A    between atoms: _100  and  _101
REMARK   39  A    between atoms: _100  and  _103
REMARK   40  A    between atoms: _103  and  _104
REMARK   41  A    between atoms: _107  and  _109
REMARK   42  A    between atoms: _109  and  _110
REMARK   43  A    between atoms: _109  and  _112
REMARK   44  A    between atoms: _112  and  _113
REMARK   45  A    between atoms: _113  and  _114
REMARK   46  A    between atoms: _117  and  _119
REMARK   47  A    between atoms: _119  and  _120
REMARK   48  A    between atoms: _119  and  _122
REMARK   49  A    between atoms: _122  and  _123
REMARK   50  A    between atoms: _133  and  _135
REMARK   51  A    between atoms: _135  and  _136
REMARK   52  A    between atoms: _135  and  _138
REMARK   53  A    between atoms: _138  and  _139
REMARK   54  A    between atoms: _139  and  _140
REMARK   55  A    between atoms: _140  and  _141
REMARK   56  A    between atoms: _150  and  _152
REMARK   57  A    between atoms: _152  and  _153
REMARK   58  A    between atoms: _152  and  _155
REMARK   59  A    between atoms: _155  and  _156
REMARK   60  A    between atoms: _161  and  _163
REMARK   61  A    between atoms: _163  and  _164
REMARK   62  A    between atoms: _163  and  _166
REMARK   63  A    between atoms: _166  and  _167
REMARK   64  A    between atoms: _167  and  _168
REMARK   65  A    between atoms: _171  and  _173
REMARK   66  A    between atoms: _173  and  _174
REMARK   67  A    between atoms: _173  and  _176
REMARK   68  A    between atoms: _176  and  _177
REMARK   69  A    between atoms: _187  and  _189
REMARK   70  A    between atoms: _189  and  _190
REMARK   71  A    between atoms: _189  and  _192
REMARK   72  A    between atoms: _192  and  _193
REMARK   73  A    between atoms: _198  and  _199
REMARK   74  A    between atoms: _201  and  _203
REMARK   75  A    between atoms: _203  and  _204
REMARK   76  A    between atoms: _203  and  _206
REMARK   77  A    between atoms: _206  and  _207
REMARK   78  A    between atoms: _217  and  _219
REMARK   79  A    between atoms: _219  and  _220
REMARK   80  A    between atoms: _219  and  _222
REMARK   81  A    between atoms: _222  and  _223
REMARK   82  A    between atoms: _228  and  _230
REMARK   83  A    between atoms: _230  and  _231
REMARK   84  A    between atoms: _230  and  _233
REMARK   85  A    between atoms: _233  and  _234
REMARK   86  A    between atoms: _239  and  _241
REMARK   87  A    between atoms: _241  and  _242
REMARK   88  A    between atoms: _241  and  _244
REMARK   89  A    between atoms: _244  and  _245
REMARK   90  A    between atoms: _248  and  _250
REMARK   91  A    between atoms: _250  and  _251
REMARK   92  A    between atoms: _253  and  _255
REMARK   93  A    between atoms: _255  and  _256
REMARK   94  A    between atoms: _255  and  _258
REMARK   95  A    between atoms: _258  and  _259
REMARK   96  A    between atoms: _264  and  _265
REMARK   97  A    between atoms: _267  and  _269
REMARK   98  A    between atoms: _269  and  _270
REMARK   99  A    between atoms: _269  and  _272
REMARK  100  A    between atoms: _272  and  _273
REMARK  101  A    between atoms: _283  and  _285
REMARK  102  A    between atoms: _285  and  _286
REMARK  103  A    between atoms: _285  and  _288
REMARK  104  A    between atoms: _288  and  _289
REMARK  105  A    between atoms: _289  and  _290
REMARK  106  A    between atoms: _293  and  _295
REMARK  107  A    between atoms: _295  and  _296
REMARK  108  A    between atoms: _295  and  _298
REMARK  109  A    between atoms: _298  and  _299
REMARK  110  A    between atoms: _305  and  _307
REMARK  111  A    between atoms: _307  and  _308
REMARK  112  A    between atoms: _311  and  _313
REMARK  113  A    between atoms: _313  and  _314
REMARK  114  A    between atoms: _313  and  _316
REMARK  115  A    between atoms: _316  and  _317
REMARK  116  A    between atoms: _323  and  _325
REMARK  117  A    between atoms: _325  and  _326
REMARK  118  A    between atoms: _325  and  _328
REMARK  119  A    between atoms: _328  and  _329
REMARK  120  A    between atoms: _334  and  _336
REMARK  121  A    between atoms: _336  and  _337
REMARK  122  A    between atoms: _336  and  _339
REMARK  123  A    between atoms: _339  and  _340
REMARK  124  A    between atoms: _340  and  _341
REMARK  125  A    between atoms: _344  and  _346
REMARK  126  A    between atoms: _346  and  _347
REMARK  127  A    between atoms: _346  and  _349
REMARK  128  A    between atoms: _349  and  _350
REMARK  129  A    between atoms: _350  and  _351
REMARK  130  A    between atoms: _351  and  _352
REMARK  131  A    between atoms: _352  and  _353
REMARK  132  A    between atoms: _357  and  _359
REMARK  133  A    between atoms: _359  and  _360
REMARK  134  A    between atoms: _359  and  _362
REMARK  135  A    between atoms: _362  and  _363
REMARK  136  A    between atoms: _363  and  _364
REMARK  137  A    between atoms: _367  and  _369
REMARK  138  A    between atoms: _369  and  _370
REMARK  139  A    between atoms: _369  and  _372
REMARK  140  A    between atoms: _372  and  _373
REMARK  141  A    between atoms: _376  and  _378
REMARK  142  A    between atoms: _378  and  _379
REMARK  143  A    between atoms: _378  and  _381
REMARK  144  A    between atoms: _381  and  _382
REMARK                            x       y       z     vdW  Elec       q    Type
REMARK                         _______ _______ _______ _____ _____    ______ ____
ROOT
ATOM      1  O   HOH     1      12.635  36.642  22.893  0.00  0.00    +0.000 OA
ENDROOT
TORSDOF 0
REMARK  Name = ../refined-set-2016/2bvd/2bvd_pocket.pdb
REMARK  144 active torsions:
REMARK  status: ('A' for Active; 'I' for Inactive)
REMARK    1  A    between atoms: _1  and  _3
REMARK    2  A    between atoms: _3  and  _4
REMARK    3  A    between atoms: _3  and  _6
REMARK    4  A    between atoms: _6  and  _7
REMARK    5  A    between atoms: _17  and  _19
REMARK    6  A    between atoms: _19  and  _20
REMARK    7  A    between atoms: _22  and  _24
REMARK    8  A    between atoms: _24  and  _25
REMARK    9  A    between atoms: _24  and  _27
REMARK   10  A    between atoms: _27  and  _28
REMARK   11  A    between atoms: _31  and  _33
REMARK   12  A    between atoms: _33  and  _34
REMARK   13  A    between atoms: _33  and  _36
REMARK   14  A    between atoms: _36  and  _37
REMARK   15  A    between atoms: _37  and  _38
REMARK   16  A    between atoms: _43  and  _45
REMARK   17  A    between atoms: _45  and  _46
REMARK   18  A    between atoms: _45  and  _48
REMARK   19  A    between atoms: _48  and  _49
REMARK   20  A    between atoms: _54  and  _56
REMARK   21  A    between atoms: _56  and  _57
REMARK   22  A    between atoms: _56  and  _59
REMARK   23  A    between atoms: _59  and  _60
REMARK   24  A    between atoms: _60  and  _61
REMARK   25  A    between atoms: _66  and  _68
REMARK   26  A    between atoms: _68  and  _69
REMARK   27  A    between atoms: _68  and  _71
REMARK   28  A    between atoms: _71  and  _72
REMARK   29  A    between atoms: _78  and  _80
REMARK   30  A    between atoms: _80  and  _81
REMARK   31  A    between atoms: _80  and  _83
REMARK   32  A    between atoms: _83  and  _84
REMARK   33  A    between atoms: _87  and  _89
REMARK   34  A    between atoms: _89  and  _90
REMARK   35  A    between atoms: _89  and  _92
REMARK   36  A    between atoms: _92  and  _93
REMARK   37  A    between atoms: _98  and  _100
REMARK   38  A    between atoms: _100  and  _101
REMARK   39  A    between atoms: _100  and  _103
REMARK   40  A    between atoms: _103  and  _104
REMARK   41  A    between atoms: _107  and  _109
REMARK   42  A    between atoms: _109  and  _110
REMARK   43  A    between atoms: _109  and  _112
REMARK   44  A    between atoms: _112  and  _113
REMARK   45  A    between atoms: _113  and  _114
REMARK   46  A    between atoms: _117  and  _119
REMARK   47  A    between atoms: _119  and  _120
REMARK   48  A    between atoms: _119  and  _122
REMARK   49  A    between atoms: _122  and  _123
REMARK   50  A    between atoms: _133  and  _135
REMARK   51  A    between atoms: _135  and  _136
REMARK   52  A    between atoms: _135  and  _138
REMARK   53  A    between atoms: _138  and  _139
REMARK   54  A    between atoms: _139  and  _140
REMARK   55  A    between atoms: _140  and  _141
REMARK   56  A    between atoms: _150  and  _152
REMARK   57  A    between atoms: _152  and  _153
REMARK   58  A    between atoms: _152  and  _155
REMARK   59  A    between atoms: _155  and  _156
REMARK   60  A    between atoms: _161  and  _163
REMARK   61  A    between atoms: _163  and  _164
REMARK   62  A    between atoms: _163  and  _166
REMARK   63  A    between atoms: _166  and  _167
REMARK   64  A    between atoms: _167  and  _168
REMARK   65  A    between atoms: _171  and  _173
REMARK   66  A    between atoms: _173  and  _174
REMARK   67  A    between atoms: _173  and  _176
REMARK   68  A    between atoms: _176  and  _177
REMARK   69  A    between atoms: _187  and  _189
REMARK   70  A    between atoms: _189  and  _190
REMARK   71  A    between atoms: _189  and  _192
REMARK   72  A    between atoms: _192  and  _193
REMARK   73  A    between atoms: _198  and  _199
REMARK   74  A    between atoms: _201  and  _203
REMARK   75  A    between atoms: _203  and  _204
REMARK   76  A    between atoms: _203  and  _206
REMARK   77  A    between atoms: _206  and  _207
REMARK   78  A    between atoms: _217  and  _219
REMARK   79  A    between atoms: _219  and  _220
REMARK   80  A    between atoms: _219  and  _222
REMARK   81  A    between atoms: _222  and  _223
REMARK   82  A    between atoms: _228  and  _230
REMARK   83  A    between atoms: _230  and  _231
REMARK   84  A    between atoms: _230  and  _233
REMARK   85  A    between atoms: _233  and  _234
REMARK   86  A    between atoms: _239  and  _241
REMARK   87  A    between atoms: _241  and  _242
REMARK   88  A    between atoms: _241  and  _244
REMARK   89  A    between atoms: _244  and  _245
REMARK   90  A    between atoms: _248  and  _250
REMARK   91  A    between atoms: _250  and  _251
REMARK   92  A    between atoms: _253  and  _255
REMARK   93  A    between atoms: _255  and  _256
REMARK   94  A    between atoms: _255  and  _258
REMARK   95  A    between atoms: _258  and  _259
REMARK   96  A    between atoms: _264  and  _265
REMARK   97  A    between atoms: _267  and  _269
REMARK   98  A    between atoms: _269  and  _270
REMARK   99  A    between atoms: _269  and  _272
REMARK  100  A    between atoms: _272  and  _273
REMARK  101  A    between atoms: _283  and  _285
REMARK  102  A    between atoms: _285  and  _286
REMARK  103  A    between atoms: _285  and  _288
REMARK  104  A    between atoms: _288  and  _289
REMARK  105  A    between atoms: _289  and  _290
REMARK  106  A    between atoms: _293  and  _295
REMARK  107  A    between atoms: _295  and  _296
REMARK  108  A    between atoms: _295  and  _298
REMARK  109  A    between atoms: _298  and  _299
REMARK  110  A    between atoms: _305  and  _307
REMARK  111  A    between atoms: _307  and  _308
REMARK  112  A    between atoms: _311  and  _313
REMARK  113  A    between atoms: _313  and  _314
REMARK  114  A    between atoms: _313  and  _316
REMARK  115  A    between atoms: _316  and  _317
REMARK  116  A    between atoms: _323  and  _325
REMARK  117  A    between atoms: _325  and  _326
REMARK  118  A    between atoms: _325  and  _328
REMARK  119  A    between atoms: _328  and  _329
REMARK  120  A    between atoms: _334  and  _336
REMARK  121  A    between atoms: _336  and  _337
REMARK  122  A    between atoms: _336  and  _339
REMARK  123  A    between atoms: _339  and  _340
REMARK  124  A    between atoms: _340  and  _341
REMARK  125  A    between atoms: _344  and  _346
REMARK  126  A    between atoms: _346  and  _347
REMARK  127  A    between atoms: _346  and  _349
REMARK  128  A    between atoms: _349  and  _350
REMARK  129  A    between atoms: _350  and  _351
REMARK  130  A    between atoms: _351  and  _352
REMARK  131  A    between atoms: _352  and  _353
REMARK  132  A    between atoms: _357  and  _359
REMARK  133  A    between atoms: _359  and  _360
REMARK  134  A    between atoms: _359  and  _362
REMARK  135  A    between atoms: _362  and  _363
REMARK  136  A    between atoms: _363  and  _364
REMARK  137  A    between atoms: _367  and  _369
REMARK  138  A    between atoms: _369  and  _370
REMARK  139  A    between atoms: _369  and  _372
REMARK  140  A    between atoms: _372  and  _373
REMARK  141  A    between atoms: _376  and  _378
REMARK  142  A    between atoms: _378  and  _379
REMARK  143  A    between atoms: _378  and  _381
REMARK  144  A    between atoms: _381  and  _382
REMARK                            x       y       z     vdW  Elec       q    Type
REMARK                         _______ _______ _______ _____ _____    ______ ____
ROOT
ATOM      1  O   HOH     1       8.651  37.382  18.476  0.00  0.00    +0.000 OA
ENDROOT
TORSDOF 0
REMARK  Name = ../refined-set-2016/2bvd/2bvd_pocket.pdb
REMARK  144 active torsions:
REMARK  status: ('A' for Active; 'I' for Inactive)
REMARK    1  A    between atoms: _1  and  _3
REMARK    2  A    between atoms: _3  and  _4
REMARK    3  A    between atoms: _3  and  _6
REMARK    4  A    between atoms: _6  and  _7
REMARK    5  A    between atoms: _17  and  _19
REMARK    6  A    between atoms: _19  and  _20
REMARK    7  A    between atoms: _22  and  _24
REMARK    8  A    between atoms: _24  and  _25
REMARK    9  A    between atoms: _24  and  _27
REMARK   10  A    between atoms: _27  and  _28
REMARK   11  A    between atoms: _31  and  _33
REMARK   12  A    between atoms: _33  and  _34
REMARK   13  A    between atoms: _33  and  _36
REMARK   14  A    between atoms: _36  and  _37
REMARK   15  A    between atoms: _37  and  _38
REMARK   16  A    between atoms: _43  and  _45
REMARK   17  A    between atoms: _45  and  _46
REMARK   18  A    between atoms: _45  and  _48
REMARK   19  A    between atoms: _48  and  _49
REMARK   20  A    between atoms: _54  and  _56
REMARK   21  A    between atoms: _56  and  _57
REMARK   22  A    between atoms: _56  and  _59
REMARK   23  A    between atoms: _59  and  _60
REMARK   24  A    between atoms: _60  and  _61
REMARK   25  A    between atoms: _66  and  _68
REMARK   26  A    between atoms: _68  and  _69
REMARK   27  A    between atoms: _68  and  _71
REMARK   28  A    between atoms: _71  and  _72
REMARK   29  A    between atoms: _78  and  _80
REMARK   30  A    between atoms: _80  and  _81
REMARK   31  A    between atoms: _80  and  _83
REMARK   32  A    between atoms: _83  and  _84
REMARK   33  A    between atoms: _87  and  _89
REMARK   34  A    between atoms: _89  and  _90
REMARK   35  A    between atoms: _89  and  _92
REMARK   36  A    between atoms: _92  and  _93
REMARK   37  A    between atoms: _98  and  _100
REMARK   38  A    between atoms: _100  and  _101
REMARK   39  A    between atoms: _100  and  _103
REMARK   40  A    between atoms: _103  and  _104
REMARK   41  A    between atoms: _107  and  _109
REMARK   42  A    between atoms: _109  and  _110
REMARK   43  A    between atoms: _109  and  _112
REMARK   44  A    between atoms: _112  and  _113
REMARK   45  A    between atoms: _113  and  _114
REMARK   46  A    between atoms: _117  and  _119
REMARK   47  A    between atoms: _119  and  _120
REMARK   48  A    between atoms: _119  and  _122
REMARK   49  A    between atoms: _122  and  _123
REMARK   50  A    between atoms: _133  and  _135
REMARK   51  A    between atoms: _135  and  _136
REMARK   52  A    between atoms: _135  and  _138
REMARK   53  A    between atoms: _138  and  _139
REMARK   54  A    between atoms: _139  and  _140
REMARK   55  A    between atoms: _140  and  _141
REMARK   56  A    between atoms: _150  and  _152
REMARK   57  A    between atoms: _152  and  _153
REMARK   58  A    between atoms: _152  and  _155
REMARK   59  A    between atoms: _155  and  _156
REMARK   60  A    between atoms: _161  and  _163
REMARK   61  A    between atoms: _163  and  _164
REMARK   62  A    between atoms: _163  and  _166
REMARK   63  A    between atoms: _166  and  _167
REMARK   64  A    between atoms: _167  and  _168
REMARK   65  A    between atoms: _171  and  _173
REMARK   66  A    between atoms: _173  and  _174
REMARK   67  A    between atoms: _173  and  _176
REMARK   68  A    between atoms: _176  and  _177
REMARK   69  A    between atoms: _187  and  _189
REMARK   70  A    between atoms: _189  and  _190
REMARK   71  A    between atoms: _189  and  _192
REMARK   72  A    between atoms: _192  and  _193
REMARK   73  A    between atoms: _198  and  _199
REMARK   74  A    between atoms: _201  and  _203
REMARK   75  A    between atoms: _203  and  _204
REMARK   76  A    between atoms: _203  and  _206
REMARK   77  A    between atoms: _206  and  _207
REMARK   78  A    between atoms: _217  and  _219
REMARK   79  A    between atoms: _219  and  _220
REMARK   80  A    between atoms: _219  and  _222
REMARK   81  A    between atoms: _222  and  _223
REMARK   82  A    between atoms: _228  and  _230
REMARK   83  A    between atoms: _230  and  _231
REMARK   84  A    between atoms: _230  and  _233
REMARK   85  A    between atoms: _233  and  _234
REMARK   86  A    between atoms: _239  and  _241
REMARK   87  A    between atoms: _241  and  _242
REMARK   88  A    between atoms: _241  and  _244
REMARK   89  A    between atoms: _244  and  _245
REMARK   90  A    between atoms: _248  and  _250
REMARK   91  A    between atoms: _250  and  _251
REMARK   92  A    between atoms: _253  and  _255
REMARK   93  A    between atoms: _255  and  _256
REMARK   94  A    between atoms: _255  and  _258
REMARK   95  A    between atoms: _258  and  _259
REMARK   96  A    between atoms: _264  and  _265
REMARK   97  A    between atoms: _267  and  _269
REMARK   98  A    between atoms: _269  and  _270
REMARK   99  A    between atoms: _269  and  _272
REMARK  100  A    between atoms: _272  and  _273
REMARK  101  A    between atoms: _283  and  _285
REMARK  102  A    between atoms: _285  and  _286
REMARK  103  A    between atoms: _285  and  _288
REMARK  104  A    between atoms: _288  and  _289
REMARK  105  A    between atoms: _289  and  _290
REMARK  106  A    between atoms: _293  and  _295
REMARK  107  A    between atoms: _295  and  _296
REMARK  108  A    between atoms: _295  and  _298
REMARK  109  A    between atoms: _298  and  _299
REMARK  110  A    between atoms: _305  and  _307
REMARK  111  A    between atoms: _307  and  _308
REMARK  112  A    between atoms: _311  and  _313
REMARK  113  A    between atoms: _313  and  _314
REMARK  114  A    between atoms: _313  and  _316
REMARK  115  A    between atoms: _316  and  _317
REMARK  116  A    between atoms: _323  and  _325
REMARK  117  A    between atoms: _325  and  _326
REMARK  118  A    between atoms: _325  and  _328
REMARK  119  A    between atoms: _328  and  _329
REMARK  120  A    between atoms: _334  and  _336
REMARK  121  A    between atoms: _336  and  _337
REMARK  122  A    between atoms: _336  and  _339
REMARK  123  A    between atoms: _339  and  _340
REMARK  124  A    between atoms: _340  and  _341
REMARK  125  A    between atoms: _344  and  _346
REMARK  126  A    between atoms: _346  and  _347
REMARK  127  A    between atoms: _346  and  _349
REMARK  128  A    between atoms: _349  and  _350
REMARK  129  A    between atoms: _350  and  _351
REMARK  130  A    between atoms: _351  and  _352
REMARK  131  A    between atoms: _352  and  _353
REMARK  132  A    between atoms: _357  and  _359
REMARK  133  A    between atoms: _359  and  _360
REMARK  134  A    between atoms: _359  and  _362
REMARK  135  A    between atoms: _362  and  _363
REMARK  136  A    between atoms: _363  and  _364
REMARK  137  A    between atoms: _367  and  _369
REMARK  138  A    between atoms: _369  and  _370
REMARK  139  A    between atoms: _369  and  _372
REMARK  140  A    between atoms: _372  and  _373
REMARK  141  A    between atoms: _376  and  _378
REMARK  142  A    between atoms: _378  and  _379
REMARK  143  A    between atoms: _378  and  _381
REMARK  144  A    between atoms: _381  and  _382
REMARK                            x       y       z     vdW  Elec       q    Type
REMARK                         _______ _______ _______ _____ _____    ______ ____
ROOT
ATOM      1  O   HOH     1      19.706  26.596  11.666  0.00  0.00    +0.000 OA
ENDROOT
TORSDOF 0
REMARK  Name = ../refined-set-2016/2bvd/2bvd_pocket.pdb
REMARK  144 active torsions:
REMARK  status: ('A' for Active; 'I' for Inactive)
REMARK    1  A    between atoms: _1  and  _3
REMARK    2  A    between atoms: _3  and  _4
REMARK    3  A    between atoms: _3  and  _6
REMARK    4  A    between atoms: _6  and  _7
REMARK    5  A    between atoms: _17  and  _19
REMARK    6  A    between atoms: _19  and  _20
REMARK    7  A    between atoms: _22  and  _24
REMARK    8  A    between atoms: _24  and  _25
REMARK    9  A    between atoms: _24  and  _27
REMARK   10  A    between atoms: _27  and  _28
REMARK   11  A    between atoms: _31  and  _33
REMARK   12  A    between atoms: _33  and  _34
REMARK   13  A    between atoms: _33  and  _36
REMARK   14  A    between atoms: _36  and  _37
REMARK   15  A    between atoms: _37  and  _38
REMARK   16  A    between atoms: _43  and  _45
REMARK   17  A    between atoms: _45  and  _46
REMARK   18  A    between atoms: _45  and  _48
REMARK   19  A    between atoms: _48  and  _49
REMARK   20  A    between atoms: _54  and  _56
REMARK   21  A    between atoms: _56  and  _57
REMARK   22  A    between atoms: _56  and  _59
REMARK   23  A    between atoms: _59  and  _60
REMARK   24  A    between atoms: _60  and  _61
REMARK   25  A    between atoms: _66  and  _68
REMARK   26  A    between atoms: _68  and  _69
REMARK   27  A    between atoms: _68  and  _71
REMARK   28  A    between atoms: _71  and  _72
REMARK   29  A    between atoms: _78  and  _80
REMARK   30  A    between atoms: _80  and  _81
REMARK   31  A    between atoms: _80  and  _83
REMARK   32  A    between atoms: _83  and  _84
REMARK   33  A    between atoms: _87  and  _89
REMARK   34  A    between atoms: _89  and  _90
REMARK   35  A    between atoms: _89  and  _92
REMARK   36  A    between atoms: _92  and  _93
REMARK   37  A    between atoms: _98  and  _100
REMARK   38  A    between atoms: _100  and  _101
REMARK   39  A    between atoms: _100  and  _103
REMARK   40  A    between atoms: _103  and  _104
REMARK   41  A    between atoms: _107  and  _109
REMARK   42  A    between atoms: _109  and  _110
REMARK   43  A    between atoms: _109  and  _112
REMARK   44  A    between atoms: _112  and  _113
REMARK   45  A    between atoms: _113  and  _114
REMARK   46  A    between atoms: _117  and  _119
REMARK   47  A    between atoms: _119  and  _120
REMARK   48  A    between atoms: _119  and  _122
REMARK   49  A    between atoms: _122  and  _123
REMARK   50  A    between atoms: _133  and  _135
REMARK   51  A    between atoms: _135  and  _136
REMARK   52  A    between atoms: _135  and  _138
REMARK   53  A    between atoms: _138  and  _139
REMARK   54  A    between atoms: _139  and  _140
REMARK   55  A    between atoms: _140  and  _141
REMARK   56  A    between atoms: _150  and  _152
REMARK   57  A    between atoms: _152  and  _153
REMARK   58  A    between atoms: _152  and  _155
REMARK   59  A    between atoms: _155  and  _156
REMARK   60  A    between atoms: _161  and  _163
REMARK   61  A    between atoms: _163  and  _164
REMARK   62  A    between atoms: _163  and  _166
REMARK   63  A    between atoms: _166  and  _167
REMARK   64  A    between atoms: _167  and  _168
REMARK   65  A    between atoms: _171  and  _173
REMARK   66  A    between atoms: _173  and  _174
REMARK   67  A    between atoms: _173  and  _176
REMARK   68  A    between atoms: _176  and  _177
REMARK   69  A    between atoms: _187  and  _189
REMARK   70  A    between atoms: _189  and  _190
REMARK   71  A    between atoms: _189  and  _192
REMARK   72  A    between atoms: _192  and  _193
REMARK   73  A    between atoms: _198  and  _199
REMARK   74  A    between atoms: _201  and  _203
REMARK   75  A    between atoms: _203  and  _204
REMARK   76  A    between atoms: _203  and  _206
REMARK   77  A    between atoms: _206  and  _207
REMARK   78  A    between atoms: _217  and  _219
REMARK   79  A    between atoms: _219  and  _220
REMARK   80  A    between atoms: _219  and  _222
REMARK   81  A    between atoms: _222  and  _223
REMARK   82  A    between atoms: _228  and  _230
REMARK   83  A    between atoms: _230  and  _231
REMARK   84  A    between atoms: _230  and  _233
REMARK   85  A    between atoms: _233  and  _234
REMARK   86  A    between atoms: _239  and  _241
REMARK   87  A    between atoms: _241  and  _242
REMARK   88  A    between atoms: _241  and  _244
REMARK   89  A    between atoms: _244  and  _245
REMARK   90  A    between atoms: _248  and  _250
REMARK   91  A    between atoms: _250  and  _251
REMARK   92  A    between atoms: _253  and  _255
REMARK   93  A    between atoms: _255  and  _256
REMARK   94  A    between atoms: _255  and  _258
REMARK   95  A    between atoms: _258  and  _259
REMARK   96  A    between atoms: _264  and  _265
REMARK   97  A    between atoms: _267  and  _269
REMARK   98  A    between atoms: _269  and  _270
REMARK   99  A    between atoms: _269  and  _272
REMARK  100  A    between atoms: _272  and  _273
REMARK  101  A    between atoms: _283  and  _285
REMARK  102  A    between atoms: _285  and  _286
REMARK  103  A    between atoms: _285  and  _288
REMARK  104  A    between atoms: _288  and  _289
REMARK  105  A    between atoms: _289  and  _290
REMARK  106  A    between atoms: _293  and  _295
REMARK  107  A    between atoms: _295  and  _296
REMARK  108  A    between atoms: _295  and  _298
REMARK  109  A    between atoms: _298  and  _299
REMARK  110  A    between atoms: _305  and  _307
REMARK  111  A    between atoms: _307  and  _308
REMARK  112  A    between atoms: _311  and  _313
REMARK  113  A    between atoms: _313  and  _314
REMARK  114  A    between atoms: _313  and  _316
REMARK  115  A    between atoms: _316  and  _317
REMARK  116  A    between atoms: _323  and  _325
REMARK  117  A    between atoms: _325  and  _326
REMARK  118  A    between atoms: _325  and  _328
REMARK  119  A    between atoms: _328  and  _329
REMARK  120  A    between atoms: _334  and  _336
REMARK  121  A    between atoms: _336  and  _337
REMARK  122  A    between atoms: _336  and  _339
REMARK  123  A    between atoms: _339  and  _340
REMARK  124  A    between atoms: _340  and  _341
REMARK  125  A    between atoms: _344  and  _346
REMARK  126  A    between atoms: _346  and  _347
REMARK  127  A    between atoms: _346  and  _349
REMARK  128  A    between atoms: _349  and  _350
REMARK  129  A    between atoms: _350  and  _351
REMARK  130  A    between atoms: _351  and  _352
REMARK  131  A    between atoms: _352  and  _353
REMARK  132  A    between atoms: _357  and  _359
REMARK  133  A    between atoms: _359  and  _360
REMARK  134  A    between atoms: _359  and  _362
REMARK  135  A    between atoms: _362  and  _363
REMARK  136  A    between atoms: _363  and  _364
REMARK  137  A    between atoms: _367  and  _369
REMARK  138  A    between atoms: _369  and  _370
REMARK  139  A    between atoms: _369  and  _372
REMARK  140  A    between atoms: _372  and  _373
REMARK  141  A    between atoms: _376  and  _378
REMARK  142  A    between atoms: _378  and  _379
REMARK  143  A    between atoms: _378  and  _381
REMARK  144  A    between atoms: _381  and  _382
REMARK                            x       y       z     vdW  Elec       q    Type
REMARK                         _______ _______ _______ _____ _____    ______ ____
ROOT
ATOM      1  O   HOH     1      20.100  28.898  24.918  0.00  0.00    +0.000 OA
ENDROOT
TORSDOF 0
REMARK  Name = ../refined-set-2016/2bvd/2bvd_pocket.pdb
REMARK  144 active torsions:
REMARK  status: ('A' for Active; 'I' for Inactive)
REMARK    1  A    between atoms: _1  and  _3
REMARK    2  A    between atoms: _3  and  _4
REMARK    3  A    between atoms: _3  and  _6
REMARK    4  A    between atoms: _6  and  _7
REMARK    5  A    between atoms: _17  and  _19
REMARK    6  A    between atoms: _19  and  _20
REMARK    7  A    between atoms: _22  and  _24
REMARK    8  A    between atoms: _24  and  _25
REMARK    9  A    between atoms: _24  and  _27
REMARK   10  A    between atoms: _27  and  _28
REMARK   11  A    between atoms: _31  and  _33
REMARK   12  A    between atoms: _33  and  _34
REMARK   13  A    between atoms: _33  and  _36
REMARK   14  A    between atoms: _36  and  _37
REMARK   15  A    between atoms: _37  and  _38
REMARK   16  A    between atoms: _43  and  _45
REMARK   17  A    between atoms: _45  and  _46
REMARK   18  A    between atoms: _45  and  _48
REMARK   19  A    between atoms: _48  and  _49
REMARK   20  A    between atoms: _54  and  _56
REMARK   21  A    between atoms: _56  and  _57
REMARK   22  A    between atoms: _56  and  _59
REMARK   23  A    between atoms: _59  and  _60
REMARK   24  A    between atoms: _60  and  _61
REMARK   25  A    between atoms: _66  and  _68
REMARK   26  A    between atoms: _68  and  _69
REMARK   27  A    between atoms: _68  and  _71
REMARK   28  A    between atoms: _71  and  _72
REMARK   29  A    between atoms: _78  and  _80
REMARK   30  A    between atoms: _80  and  _81
REMARK   31  A    between atoms: _80  and  _83
REMARK   32  A    between atoms: _83  and  _84
REMARK   33  A    between atoms: _87  and  _89
REMARK   34  A    between atoms: _89  and  _90
REMARK   35  A    between atoms: _89  and  _92
REMARK   36  A    between atoms: _92  and  _93
REMARK   37  A    between atoms: _98  and  _100
REMARK   38  A    between atoms: _100  and  _101
REMARK   39  A    between atoms: _100  and  _103
REMARK   40  A    between atoms: _103  and  _104
REMARK   41  A    between atoms: _107  and  _109
REMARK   42  A    between atoms: _109  and  _110
REMARK   43  A    between atoms: _109  and  _112
REMARK   44  A    between atoms: _112  and  _113
REMARK   45  A    between atoms: _113  and  _114
REMARK   46  A    between atoms: _117  and  _119
REMARK   47  A    between atoms: _119  and  _120
REMARK   48  A    between atoms: _119  and  _122
REMARK   49  A    between atoms: _122  and  _123
REMARK   50  A    between atoms: _133  and  _135
REMARK   51  A    between atoms: _135  and  _136
REMARK   52  A    between atoms: _135  and  _138
REMARK   53  A    between atoms: _138  and  _139
REMARK   54  A    between atoms: _139  and  _140
REMARK   55  A    between atoms: _140  and  _141
REMARK   56  A    between atoms: _150  and  _152
REMARK   57  A    between atoms: _152  and  _153
REMARK   58  A    between atoms: _152  and  _155
REMARK   59  A    between atoms: _155  and  _156
REMARK   60  A    between atoms: _161  and  _163
REMARK   61  A    between atoms: _163  and  _164
REMARK   62  A    between atoms: _163  and  _166
REMARK   63  A    between atoms: _166  and  _167
REMARK   64  A    between atoms: _167  and  _168
REMARK   65  A    between atoms: _171  and  _173
REMARK   66  A    between atoms: _173  and  _174
REMARK   67  A    between atoms: _173  and  _176
REMARK   68  A    between atoms: _176  and  _177
REMARK   69  A    between atoms: _187  and  _189
REMARK   70  A    between atoms: _189  and  _190
REMARK   71  A    between atoms: _189  and  _192
REMARK   72  A    between atoms: _192  and  _193
REMARK   73  A    between atoms: _198  and  _199
REMARK   74  A    between atoms: _201  and  _203
REMARK   75  A    between atoms: _203  and  _204
REMARK   76  A    between atoms: _203  and  _206
REMARK   77  A    between atoms: _206  and  _207
REMARK   78  A    between atoms: _217  and  _219
REMARK   79  A    between atoms: _219  and  _220
REMARK   80  A    between atoms: _219  and  _222
REMARK   81  A    between atoms: _222  and  _223
REMARK   82  A    between atoms: _228  and  _230
REMARK   83  A    between atoms: _230  and  _231
REMARK   84  A    between atoms: _230  and  _233
REMARK   85  A    between atoms: _233  and  _234
REMARK   86  A    between atoms: _239  and  _241
REMARK   87  A    between atoms: _241  and  _242
REMARK   88  A    between atoms: _241  and  _244
REMARK   89  A    between atoms: _244  and  _245
REMARK   90  A    between atoms: _248  and  _250
REMARK   91  A    between atoms: _250  and  _251
REMARK   92  A    between atoms: _253  and  _255
REMARK   93  A    between atoms: _255  and  _256
REMARK   94  A    between atoms: _255  and  _258
REMARK   95  A    between atoms: _258  and  _259
REMARK   96  A    between atoms: _264  and  _265
REMARK   97  A    between atoms: _267  and  _269
REMARK   98  A    between atoms: _269  and  _270
REMARK   99  A    between atoms: _269  and  _272
REMARK  100  A    between atoms: _272  and  _273
REMARK  101  A    between atoms: _283  and  _285
REMARK  102  A    between atoms: _285  and  _286
REMARK  103  A    between atoms: _285  and  _288
REMARK  104  A    between atoms: _288  and  _289
REMARK  105  A    between atoms: _289  and  _290
REMARK  106  A    between atoms: _293  and  _295
REMARK  107  A    between atoms: _295  and  _296
REMARK  108  A    between atoms: _295  and  _298
REMARK  109  A    between atoms: _298  and  _299
REMARK  110  A    between atoms: _305  and  _307
REMARK  111  A    between atoms: _307  and  _308
REMARK  112  A    between atoms: _311  and  _313
REMARK  113  A    between atoms: _313  and  _314
REMARK  114  A    between atoms: _313  and  _316
REMARK  115  A    between atoms: _316  and  _317
REMARK  116  A    between atoms: _323  and  _325
REMARK  117  A    between atoms: _325  and  _326
REMARK  118  A    between atoms: _325  and  _328
REMARK  119  A    between atoms: _328  and  _329
REMARK  120  A    between atoms: _334  and  _336
REMARK  121  A    between atoms: _336  and  _337
REMARK  122  A    between atoms: _336  and  _339
REMARK  123  A    between atoms: _339  and  _340
REMARK  124  A    between atoms: _340  and  _341
REMARK  125  A    between atoms: _344  and  _346
REMARK  126  A    between atoms: _346  and  _347
REMARK  127  A    between atoms: _346  and  _349
REMARK  128  A    between atoms: _349  and  _350
REMARK  129  A    between atoms: _350  and  _351
REMARK  130  A    between atoms: _351  and  _352
REMARK  131  A    between atoms: _352  and  _353
REMARK  132  A    between atoms: _357  and  _359
REMARK  133  A    between atoms: _359  and  _360
REMARK  134  A    between atoms: _359  and  _362
REMARK  135  A    between atoms: _362  and  _363
REMARK  136  A    between atoms: _363  and  _364
REMARK  137  A    between atoms: _367  and  _369
REMARK  138  A    between atoms: _369  and  _370
REMARK  139  A    between atoms: _369  and  _372
REMARK  140  A    between atoms: _372  and  _373
REMARK  141  A    between atoms: _376  and  _378
REMARK  142  A    between atoms: _378  and  _379
REMARK  143  A    between atoms: _378  and  _381
REMARK  144  A    between atoms: _381  and  _382
REMARK                            x       y       z     vdW  Elec       q    Type
REMARK                         _______ _______ _______ _____ _____    ______ ____
ROOT
ATOM      1  O   HOH     1      23.654  29.734  22.380  0.00  0.00    +0.000 OA
ENDROOT
TORSDOF 0
REMARK  Name = ../refined-set-2016/2bvd/2bvd_pocket.pdb
REMARK  144 active torsions:
REMARK  status: ('A' for Active; 'I' for Inactive)
REMARK    1  A    between atoms: _1  and  _3
REMARK    2  A    between atoms: _3  and  _4
REMARK    3  A    between atoms: _3  and  _6
REMARK    4  A    between atoms: _6  and  _7
REMARK    5  A    between atoms: _17  and  _19
REMARK    6  A    between atoms: _19  and  _20
REMARK    7  A    between atoms: _22  and  _24
REMARK    8  A    between atoms: _24  and  _25
REMARK    9  A    between atoms: _24  and  _27
REMARK   10  A    between atoms: _27  and  _28
REMARK   11  A    between atoms: _31  and  _33
REMARK   12  A    between atoms: _33  and  _34
REMARK   13  A    between atoms: _33  and  _36
REMARK   14  A    between atoms: _36  and  _37
REMARK   15  A    between atoms: _37  and  _38
REMARK   16  A    between atoms: _43  and  _45
REMARK   17  A    between atoms: _45  and  _46
REMARK   18  A    between atoms: _45  and  _48
REMARK   19  A    between atoms: _48  and  _49
REMARK   20  A    between atoms: _54  and  _56
REMARK   21  A    between atoms: _56  and  _57
REMARK   22  A    between atoms: _56  and  _59
REMARK   23  A    between atoms: _59  and  _60
REMARK   24  A    between atoms: _60  and  _61
REMARK   25  A    between atoms: _66  and  _68
REMARK   26  A    between atoms: _68  and  _69
REMARK   27  A    between atoms: _68  and  _71
REMARK   28  A    between atoms: _71  and  _72
REMARK   29  A    between atoms: _78  and  _80
REMARK   30  A    between atoms: _80  and  _81
REMARK   31  A    between atoms: _80  and  _83
REMARK   32  A    between atoms: _83  and  _84
REMARK   33  A    between atoms: _87  and  _89
REMARK   34  A    between atoms: _89  and  _90
REMARK   35  A    between atoms: _89  and  _92
REMARK   36  A    between atoms: _92  and  _93
REMARK   37  A    between atoms: _98  and  _100
REMARK   38  A    between atoms: _100  and  _101
REMARK   39  A    between atoms: _100  and  _103
REMARK   40  A    between atoms: _103  and  _104
REMARK   41  A    between atoms: _107  and  _109
REMARK   42  A    between atoms: _109  and  _110
REMARK   43  A    between atoms: _109  and  _112
REMARK   44  A    between atoms: _112  and  _113
REMARK   45  A    between atoms: _113  and  _114
REMARK   46  A    between atoms: _117  and  _119
REMARK   47  A    between atoms: _119  and  _120
REMARK   48  A    between atoms: _119  and  _122
REMARK   49  A    between atoms: _122  and  _123
REMARK   50  A    between atoms: _133  and  _135
REMARK   51  A    between atoms: _135  and  _136
REMARK   52  A    between atoms: _135  and  _138
REMARK   53  A    between atoms: _138  and  _139
REMARK   54  A    between atoms: _139  and  _140
REMARK   55  A    between atoms: _140  and  _141
REMARK   56  A    between atoms: _150  and  _152
REMARK   57  A    between atoms: _152  and  _153
REMARK   58  A    between atoms: _152  and  _155
REMARK   59  A    between atoms: _155  and  _156
REMARK   60  A    between atoms: _161  and  _163
REMARK   61  A    between atoms: _163  and  _164
REMARK   62  A    between atoms: _163  and  _166
REMARK   63  A    between atoms: _166  and  _167
REMARK   64  A    between atoms: _167  and  _168
REMARK   65  A    between atoms: _171  and  _173
REMARK   66  A    between atoms: _173  and  _174
REMARK   67  A    between atoms: _173  and  _176
REMARK   68  A    between atoms: _176  and  _177
REMARK   69  A    between atoms: _187  and  _189
REMARK   70  A    between atoms: _189  and  _190
REMARK   71  A    between atoms: _189  and  _192
REMARK   72  A    between atoms: _192  and  _193
REMARK   73  A    between atoms: _198  and  _199
REMARK   74  A    between atoms: _201  and  _203
REMARK   75  A    between atoms: _203  and  _204
REMARK   76  A    between atoms: _203  and  _206
REMARK   77  A    between atoms: _206  and  _207
REMARK   78  A    between atoms: _217  and  _219
REMARK   79  A    between atoms: _219  and  _220
REMARK   80  A    between atoms: _219  and  _222
REMARK   81  A    between atoms: _222  and  _223
REMARK   82  A    between atoms: _228  and  _230
REMARK   83  A    between atoms: _230  and  _231
REMARK   84  A    between atoms: _230  and  _233
REMARK   85  A    between atoms: _233  and  _234
REMARK   86  A    between atoms: _239  and  _241
REMARK   87  A    between atoms: _241  and  _242
REMARK   88  A    between atoms: _241  and  _244
REMARK   89  A    between atoms: _244  and  _245
REMARK   90  A    between atoms: _248  and  _250
REMARK   91  A    between atoms: _250  and  _251
REMARK   92  A    between atoms: _253  and  _255
REMARK   93  A    between atoms: _255  and  _256
REMARK   94  A    between atoms: _255  and  _258
REMARK   95  A    between atoms: _258  and  _259
REMARK   96  A    between atoms: _264  and  _265
REMARK   97  A    between atoms: _267  and  _269
REMARK   98  A    between atoms: _269  and  _270
REMARK   99  A    between atoms: _269  and  _272
REMARK  100  A    between atoms: _272  and  _273
REMARK  101  A    between atoms: _283  and  _285
REMARK  102  A    between atoms: _285  and  _286
REMARK  103  A    between atoms: _285  and  _288
REMARK  104  A    between atoms: _288  and  _289
REMARK  105  A    between atoms: _289  and  _290
REMARK  106  A    between atoms: _293  and  _295
REMARK  107  A    between atoms: _295  and  _296
REMARK  108  A    between atoms: _295  and  _298
REMARK  109  A    between atoms: _298  and  _299
REMARK  110  A    between atoms: _305  and  _307
REMARK  111  A    between atoms: _307  and  _308
REMARK  112  A    between atoms: _311  and  _313
REMARK  113  A    between atoms: _313  and  _314
REMARK  114  A    between atoms: _313  and  _316
REMARK  115  A    between atoms: _316  and  _317
REMARK  116  A    between atoms: _323  and  _325
REMARK  117  A    between atoms: _325  and  _326
REMARK  118  A    between atoms: _325  and  _328
REMARK  119  A    between atoms: _328  and  _329
REMARK  120  A    between atoms: _334  and  _336
REMARK  121  A    between atoms: _336  and  _337
REMARK  122  A    between atoms: _336  and  _339
REMARK  123  A    between atoms: _339  and  _340
REMARK  124  A    between atoms: _340  and  _341
REMARK  125  A    between atoms: _344  and  _346
REMARK  126  A    between atoms: _346  and  _347
REMARK  127  A    between atoms: _346  and  _349
REMARK  128  A    between atoms: _349  and  _350
REMARK  129  A    between atoms: _350  and  _351
REMARK  130  A    between atoms: _351  and  _352
REMARK  131  A    between atoms: _352  and  _353
REMARK  132  A    between atoms: _357  and  _359
REMARK  133  A    between atoms: _359  and  _360
REMARK  134  A    between atoms: _359  and  _362
REMARK  135  A    between atoms: _362  and  _363
REMARK  136  A    between atoms: _363  and  _364
REMARK  137  A    between atoms: _367  and  _369
REMARK  138  A    between atoms: _369  and  _370
REMARK  139  A    between atoms: _369  and  _372
REMARK  140  A    between atoms: _372  and  _373
REMARK  141  A    between atoms: _376  and  _378
REMARK  142  A    between atoms: _378  and  _379
REMARK  143  A    between atoms: _378  and  _381
REMARK  144  A    between atoms: _381  and  _382
REMARK                            x       y       z     vdW  Elec       q    Type
REMARK                         _______ _______ _______ _____ _____    ______ ____
ROOT
ATOM      1  O   HOH     1      27.864  32.853  17.779  0.00  0.00    +0.000 OA
ENDROOT
TORSDOF 0
REMARK  Name = ../refined-set-2016/2bvd/2bvd_pocket.pdb
REMARK  144 active torsions:
REMARK  status: ('A' for Active; 'I' for Inactive)
REMARK    1  A    between atoms: _1  and  _3
REMARK    2  A    between atoms: _3  and  _4
REMARK    3  A    between atoms: _3  and  _6
REMARK    4  A    between atoms: _6  and  _7
REMARK    5  A    between atoms: _17  and  _19
REMARK    6  A    between atoms: _19  and  _20
REMARK    7  A    between atoms: _22  and  _24
REMARK    8  A    between atoms: _24  and  _25
REMARK    9  A    between atoms: _24  and  _27
REMARK   10  A    between atoms: _27  and  _28
REMARK   11  A    between atoms: _31  and  _33
REMARK   12  A    between atoms: _33  and  _34
REMARK   13  A    between atoms: _33  and  _36
REMARK   14  A    between atoms: _36  and  _37
REMARK   15  A    between atoms: _37  and  _38
REMARK   16  A    between atoms: _43  and  _45
REMARK   17  A    between atoms: _45  and  _46
REMARK   18  A    between atoms: _45  and  _48
REMARK   19  A    between atoms: _48  and  _49
REMARK   20  A    between atoms: _54  and  _56
REMARK   21  A    between atoms: _56  and  _57
REMARK   22  A    between atoms: _56  and  _59
REMARK   23  A    between atoms: _59  and  _60
REMARK   24  A    between atoms: _60  and  _61
REMARK   25  A    between atoms: _66  and  _68
REMARK   26  A    between atoms: _68  and  _69
REMARK   27  A    between atoms: _68  and  _71
REMARK   28  A    between atoms: _71  and  _72
REMARK   29  A    between atoms: _78  and  _80
REMARK   30  A    between atoms: _80  and  _81
REMARK   31  A    between atoms: _80  and  _83
REMARK   32  A    between atoms: _83  and  _84
REMARK   33  A    between atoms: _87  and  _89
REMARK   34  A    between atoms: _89  and  _90
REMARK   35  A    between atoms: _89  and  _92
REMARK   36  A    between atoms: _92  and  _93
REMARK   37  A    between atoms: _98  and  _100
REMARK   38  A    between atoms: _100  and  _101
REMARK   39  A    between atoms: _100  and  _103
REMARK   40  A    between atoms: _103  and  _104
REMARK   41  A    between atoms: _107  and  _109
REMARK   42  A    between atoms: _109  and  _110
REMARK   43  A    between atoms: _109  and  _112
REMARK   44  A    between atoms: _112  and  _113
REMARK   45  A    between atoms: _113  and  _114
REMARK   46  A    between atoms: _117  and  _119
REMARK   47  A    between atoms: _119  and  _120
REMARK   48  A    between atoms: _119  and  _122
REMARK   49  A    between atoms: _122  and  _123
REMARK   50  A    between atoms: _133  and  _135
REMARK   51  A    between atoms: _135  and  _136
REMARK   52  A    between atoms: _135  and  _138
REMARK   53  A    between atoms: _138  and  _139
REMARK   54  A    between atoms: _139  and  _140
REMARK   55  A    between atoms: _140  and  _141
REMARK   56  A    between atoms: _150  and  _152
REMARK   57  A    between atoms: _152  and  _153
REMARK   58  A    between atoms: _152  and  _155
REMARK   59  A    between atoms: _155  and  _156
REMARK   60  A    between atoms: _161  and  _163
REMARK   61  A    between atoms: _163  and  _164
REMARK   62  A    between atoms: _163  and  _166
REMARK   63  A    between atoms: _166  and  _167
REMARK   64  A    between atoms: _167  and  _168
REMARK   65  A    between atoms: _171  and  _173
REMARK   66  A    between atoms: _173  and  _174
REMARK   67  A    between atoms: _173  and  _176
REMARK   68  A    between atoms: _176  and  _177
REMARK   69  A    between atoms: _187  and  _189
REMARK   70  A    between atoms: _189  and  _190
REMARK   71  A    between atoms: _189  and  _192
REMARK   72  A    between atoms: _192  and  _193
REMARK   73  A    between atoms: _198  and  _199
REMARK   74  A    between atoms: _201  and  _203
REMARK   75  A    between atoms: _203  and  _204
REMARK   76  A    between atoms: _203  and  _206
REMARK   77  A    between atoms: _206  and  _207
REMARK   78  A    between atoms: _217  and  _219
REMARK   79  A    between atoms: _219  and  _220
REMARK   80  A    between atoms: _219  and  _222
REMARK   81  A    between atoms: _222  and  _223
REMARK   82  A    between atoms: _228  and  _230
REMARK   83  A    between atoms: _230  and  _231
REMARK   84  A    between atoms: _230  and  _233
REMARK   85  A    between atoms: _233  and  _234
REMARK   86  A    between atoms: _239  and  _241
REMARK   87  A    between atoms: _241  and  _242
REMARK   88  A    between atoms: _241  and  _244
REMARK   89  A    between atoms: _244  and  _245
REMARK   90  A    between atoms: _248  and  _250
REMARK   91  A    between atoms: _250  and  _251
REMARK   92  A    between atoms: _253  and  _255
REMARK   93  A    between atoms: _255  and  _256
REMARK   94  A    between atoms: _255  and  _258
REMARK   95  A    between atoms: _258  and  _259
REMARK   96  A    between atoms: _264  and  _265
REMARK   97  A    between atoms: _267  and  _269
REMARK   98  A    between atoms: _269  and  _270
REMARK   99  A    between atoms: _269  and  _272
REMARK  100  A    between atoms: _272  and  _273
REMARK  101  A    between atoms: _283  and  _285
REMARK  102  A    between atoms: _285  and  _286
REMARK  103  A    between atoms: _285  and  _288
REMARK  104  A    between atoms: _288  and  _289
REMARK  105  A    between atoms: _289  and  _290
REMARK  106  A    between atoms: _293  and  _295
REMARK  107  A    between atoms: _295  and  _296
REMARK  108  A    between atoms: _295  and  _298
REMARK  109  A    between atoms: _298  and  _299
REMARK  110  A    between atoms: _305  and  _307
REMARK  111  A    between atoms: _307  and  _308
REMARK  112  A    between atoms: _311  and  _313
REMARK  113  A    between atoms: _313  and  _314
REMARK  114  A    between atoms: _313  and  _316
REMARK  115  A    between atoms: _316  and  _317
REMARK  116  A    between atoms: _323  and  _325
REMARK  117  A    between atoms: _325  and  _326
REMARK  118  A    between atoms: _325  and  _328
REMARK  119  A    between atoms: _328  and  _329
REMARK  120  A    between atoms: _334  and  _336
REMARK  121  A    between atoms: _336  and  _337
REMARK  122  A    between atoms: _336  and  _339
REMARK  123  A    between atoms: _339  and  _340
REMARK  124  A    between atoms: _340  and  _341
REMARK  125  A    between atoms: _344  and  _346
REMARK  126  A    between atoms: _346  and  _347
REMARK  127  A    between atoms: _346  and  _349
REMARK  128  A    between atoms: _349  and  _350
REMARK  129  A    between atoms: _350  and  _351
REMARK  130  A    between atoms: _351  and  _352
REMARK  131  A    between atoms: _352  and  _353
REMARK  132  A    between atoms: _357  and  _359
REMARK  133  A    between atoms: _359  and  _360
REMARK  134  A    between atoms: _359  and  _362
REMARK  135  A    between atoms: _362  and  _363
REMARK  136  A    between atoms: _363  and  _364
REMARK  137  A    between atoms: _367  and  _369
REMARK  138  A    between atoms: _369  and  _370
REMARK  139  A    between atoms: _369  and  _372
REMARK  140  A    between atoms: _372  and  _373
REMARK  141  A    between atoms: _376  and  _378
REMARK  142  A    between atoms: _378  and  _379
REMARK  143  A    between atoms: _378  and  _381
REMARK  144  A    between atoms: _381  and  _382
REMARK                            x       y       z     vdW  Elec       q    Type
REMARK                         _______ _______ _______ _____ _____    ______ ____
ROOT
ATOM      1  O   HOH     1      24.625  35.811  19.898  0.00  0.00    +0.000 OA
ENDROOT
TORSDOF 0
REMARK  Name = ../refined-set-2016/2bvd/2bvd_pocket.pdb
REMARK  144 active torsions:
REMARK  status: ('A' for Active; 'I' for Inactive)
REMARK    1  A    between atoms: _1  and  _3
REMARK    2  A    between atoms: _3  and  _4
REMARK    3  A    between atoms: _3  and  _6
REMARK    4  A    between atoms: _6  and  _7
REMARK    5  A    between atoms: _17  and  _19
REMARK    6  A    between atoms: _19  and  _20
REMARK    7  A    between atoms: _22  and  _24
REMARK    8  A    between atoms: _24  and  _25
REMARK    9  A    between atoms: _24  and  _27
REMARK   10  A    between atoms: _27  and  _28
REMARK   11  A    between atoms: _31  and  _33
REMARK   12  A    between atoms: _33  and  _34
REMARK   13  A    between atoms: _33  and  _36
REMARK   14  A    between atoms: _36  and  _37
REMARK   15  A    between atoms: _37  and  _38
REMARK   16  A    between atoms: _43  and  _45
REMARK   17  A    between atoms: _45  and  _46
REMARK   18  A    between atoms: _45  and  _48
REMARK   19  A    between atoms: _48  and  _49
REMARK   20  A    between atoms: _54  and  _56
REMARK   21  A    between atoms: _56  and  _57
REMARK   22  A    between atoms: _56  and  _59
REMARK   23  A    between atoms: _59  and  _60
REMARK   24  A    between atoms: _60  and  _61
REMARK   25  A    between atoms: _66  and  _68
REMARK   26  A    between atoms: _68  and  _69
REMARK   27  A    between atoms: _68  and  _71
REMARK   28  A    between atoms: _71  and  _72
REMARK   29  A    between atoms: _78  and  _80
REMARK   30  A    between atoms: _80  and  _81
REMARK   31  A    between atoms: _80  and  _83
REMARK   32  A    between atoms: _83  and  _84
REMARK   33  A    between atoms: _87  and  _89
REMARK   34  A    between atoms: _89  and  _90
REMARK   35  A    between atoms: _89  and  _92
REMARK   36  A    between atoms: _92  and  _93
REMARK   37  A    between atoms: _98  and  _100
REMARK   38  A    between atoms: _100  and  _101
REMARK   39  A    between atoms: _100  and  _103
REMARK   40  A    between atoms: _103  and  _104
REMARK   41  A    between atoms: _107  and  _109
REMARK   42  A    between atoms: _109  and  _110
REMARK   43  A    between atoms: _109  and  _112
REMARK   44  A    between atoms: _112  and  _113
REMARK   45  A    between atoms: _113  and  _114
REMARK   46  A    between atoms: _117  and  _119
REMARK   47  A    between atoms: _119  and  _120
REMARK   48  A    between atoms: _119  and  _122
REMARK   49  A    between atoms: _122  and  _123
REMARK   50  A    between atoms: _133  and  _135
REMARK   51  A    between atoms: _135  and  _136
REMARK   52  A    between atoms: _135  and  _138
REMARK   53  A    between atoms: _138  and  _139
REMARK   54  A    between atoms: _139  and  _140
REMARK   55  A    between atoms: _140  and  _141
REMARK   56  A    between atoms: _150  and  _152
REMARK   57  A    between atoms: _152  and  _153
REMARK   58  A    between atoms: _152  and  _155
REMARK   59  A    between atoms: _155  and  _156
REMARK   60  A    between atoms: _161  and  _163
REMARK   61  A    between atoms: _163  and  _164
REMARK   62  A    between atoms: _163  and  _166
REMARK   63  A    between atoms: _166  and  _167
REMARK   64  A    between atoms: _167  and  _168
REMARK   65  A    between atoms: _171  and  _173
REMARK   66  A    between atoms: _173  and  _174
REMARK   67  A    between atoms: _173  and  _176
REMARK   68  A    between atoms: _176  and  _177
REMARK   69  A    between atoms: _187  and  _189
REMARK   70  A    between atoms: _189  and  _190
REMARK   71  A    between atoms: _189  and  _192
REMARK   72  A    between atoms: _192  and  _193
REMARK   73  A    between atoms: _198  and  _199
REMARK   74  A    between atoms: _201  and  _203
REMARK   75  A    between atoms: _203  and  _204
REMARK   76  A    between atoms: _203  and  _206
REMARK   77  A    between atoms: _206  and  _207
REMARK   78  A    between atoms: _217  and  _219
REMARK   79  A    between atoms: _219  and  _220
REMARK   80  A    between atoms: _219  and  _222
REMARK   81  A    between atoms: _222  and  _223
REMARK   82  A    between atoms: _228  and  _230
REMARK   83  A    between atoms: _230  and  _231
REMARK   84  A    between atoms: _230  and  _233
REMARK   85  A    between atoms: _233  and  _234
REMARK   86  A    between atoms: _239  and  _241
REMARK   87  A    between atoms: _241  and  _242
REMARK   88  A    between atoms: _241  and  _244
REMARK   89  A    between atoms: _244  and  _245
REMARK   90  A    between atoms: _248  and  _250
REMARK   91  A    between atoms: _250  and  _251
REMARK   92  A    between atoms: _253  and  _255
REMARK   93  A    between atoms: _255  and  _256
REMARK   94  A    between atoms: _255  and  _258
REMARK   95  A    between atoms: _258  and  _259
REMARK   96  A    between atoms: _264  and  _265
REMARK   97  A    between atoms: _267  and  _269
REMARK   98  A    between atoms: _269  and  _270
REMARK   99  A    between atoms: _269  and  _272
REMARK  100  A    between atoms: _272  and  _273
REMARK  101  A    between atoms: _283  and  _285
REMARK  102  A    between atoms: _285  and  _286
REMARK  103  A    between atoms: _285  and  _288
REMARK  104  A    between atoms: _288  and  _289
REMARK  105  A    between atoms: _289  and  _290
REMARK  106  A    between atoms: _293  and  _295
REMARK  107  A    between atoms: _295  and  _296
REMARK  108  A    between atoms: _295  and  _298
REMARK  109  A    between atoms: _298  and  _299
REMARK  110  A    between atoms: _305  and  _307
REMARK  111  A    between atoms: _307  and  _308
REMARK  112  A    between atoms: _311  and  _313
REMARK  113  A    between atoms: _313  and  _314
REMARK  114  A    between atoms: _313  and  _316
REMARK  115  A    between atoms: _316  and  _317
REMARK  116  A    between atoms: _323  and  _325
REMARK  117  A    between atoms: _325  and  _326
REMARK  118  A    between atoms: _325  and  _328
REMARK  119  A    between atoms: _328  and  _329
REMARK  120  A    between atoms: _334  and  _336
REMARK  121  A    between atoms: _336  and  _337
REMARK  122  A    between atoms: _336  and  _339
REMARK  123  A    between atoms: _339  and  _340
REMARK  124  A    between atoms: _340  and  _341
REMARK  125  A    between atoms: _344  and  _346
REMARK  126  A    between atoms: _346  and  _347
REMARK  127  A    between atoms: _346  and  _349
REMARK  128  A    between atoms: _349  and  _350
REMARK  129  A    between atoms: _350  and  _351
REMARK  130  A    between atoms: _351  and  _352
REMARK  131  A    between atoms: _352  and  _353
REMARK  132  A    between atoms: _357  and  _359
REMARK  133  A    between atoms: _359  and  _360
REMARK  134  A    between atoms: _359  and  _362
REMARK  135  A    between atoms: _362  and  _363
REMARK  136  A    between atoms: _363  and  _364
REMARK  137  A    between atoms: _367  and  _369
REMARK  138  A    between atoms: _369  and  _370
REMARK  139  A    between atoms: _369  and  _372
REMARK  140  A    between atoms: _372  and  _373
REMARK  141  A    between atoms: _376  and  _378
REMARK  142  A    between atoms: _378  and  _379
REMARK  143  A    between atoms: _378  and  _381
REMARK  144  A    between atoms: _381  and  _382
REMARK                            x       y       z     vdW  Elec       q    Type
REMARK                         _______ _______ _______ _____ _____    ______ ____
ROOT
ATOM      1  O   HOH     1      25.492  30.808  20.419  0.00  0.00    +0.000 OA
ENDROOT
TORSDOF 0
