REMARK  Name = ../refined-set-2016/3ovn/3ovn_pocket.pdb
REMARK  110 active torsions:
REMARK  status: ('A' for Active; 'I' for Inactive)
REMARK    1  A    between atoms: _1  and  _3
REMARK    2  A    between atoms: _3  and  _4
REMARK    3  A    between atoms: _3  and  _6
REMARK    4  A    between atoms: _6  and  _7
REMARK    5  A    between atoms: _12  and  _13
REMARK    6  A    between atoms: _15  and  _17
REMARK    7  A    between atoms: _17  and  _18
REMARK    8  A    between atoms: _17  and  _20
REMARK    9  A    between atoms: _20  and  _21
REMARK   10  A    between atoms: _24  and  _26
REMARK   11  A    between atoms: _26  and  _27
REMARK   12  A    between atoms: _26  and  _29
REMARK   13  A    between atoms: _29  and  _30
REMARK   14  A    between atoms: _40  and  _42
REMARK   15  A    between atoms: _42  and  _43
REMARK   16  A    between atoms: _42  and  _45
REMARK   17  A    between atoms: _45  and  _46
REMARK   18  A    between atoms: _52  and  _54
REMARK   19  A    between atoms: _54  and  _55
REMARK   20  A    between atoms: _54  and  _57
REMARK   21  A    between atoms: _57  and  _58
REMARK   22  A    between atoms: _63  and  _65
REMARK   23  A    between atoms: _65  and  _66
REMARK   24  A    between atoms: _65  and  _68
REMARK   25  A    between atoms: _68  and  _69
REMARK   26  A    between atoms: _74  and  _76
REMARK   27  A    between atoms: _76  and  _77
REMARK   28  A    between atoms: _76  and  _79
REMARK   29  A    between atoms: _79  and  _80
REMARK   30  A    between atoms: _80  and  _81
REMARK   31  A    between atoms: _81  and  _82
REMARK   32  A    between atoms: _91  and  _93
REMARK   33  A    between atoms: _93  and  _94
REMARK   34  A    between atoms: _93  and  _96
REMARK   35  A    between atoms: _96  and  _97
REMARK   36  A    between atoms: _99  and  _101
REMARK   37  A    between atoms: _101  and  _102
REMARK   38  A    between atoms: _105  and  _107
REMARK   39  A    between atoms: _107  and  _108
REMARK   40  A    between atoms: _110  and  _112
REMARK   41  A    between atoms: _112  and  _113
REMARK   42  A    between atoms: _112  and  _115
REMARK   43  A    between atoms: _115  and  _116
REMARK   44  A    between atoms: _116  and  _117
REMARK   45  A    between atoms: _120  and  _122
REMARK   46  A    between atoms: _122  and  _123
REMARK   47  A    between atoms: _122  and  _125
REMARK   48  A    between atoms: _125  and  _126
REMARK   49  A    between atoms: _126  and  _127
REMARK   50  A    between atoms: _127  and  _128
REMARK   51  A    between atoms: _137  and  _139
REMARK   52  A    between atoms: _139  and  _140
REMARK   53  A    between atoms: _139  and  _142
REMARK   54  A    between atoms: _142  and  _143
REMARK   55  A    between atoms: _146  and  _148
REMARK   56  A    between atoms: _148  and  _149
REMARK   57  A    between atoms: _148  and  _151
REMARK   58  A    between atoms: _154  and  _156
REMARK   59  A    between atoms: _156  and  _157
REMARK   60  A    between atoms: _156  and  _159
REMARK   61  A    between atoms: _159  and  _160
REMARK   62  A    between atoms: _164  and  _165
REMARK   63  A    between atoms: _170  and  _172
REMARK   64  A    between atoms: _172  and  _173
REMARK   65  A    between atoms: _172  and  _175
REMARK   66  A    between atoms: _175  and  _176
REMARK   67  A    between atoms: _179  and  _181
REMARK   68  A    between atoms: _181  and  _182
REMARK   69  A    between atoms: _185  and  _187
REMARK   70  A    between atoms: _187  and  _188
REMARK   71  A    between atoms: _190  and  _192
REMARK   72  A    between atoms: _192  and  _193
REMARK   73  A    between atoms: _192  and  _195
REMARK   74  A    between atoms: _195  and  _196
REMARK   75  A    between atoms: _196  and  _197
REMARK   76  A    between atoms: _197  and  _198
REMARK   77  A    between atoms: _207  and  _209
REMARK   78  A    between atoms: _209  and  _210
REMARK   79  A    between atoms: _209  and  _212
REMARK   80  A    between atoms: _212  and  _213
REMARK   81  A    between atoms: _224  and  _225
REMARK   82  A    between atoms: _230  and  _232
REMARK   83  A    between atoms: _232  and  _233
REMARK   84  A    between atoms: _232  and  _235
REMARK   85  A    between atoms: _238  and  _240
REMARK   86  A    between atoms: _240  and  _241
REMARK   87  A    between atoms: _240  and  _243
REMARK   88  A    between atoms: _243  and  _244
REMARK   89  A    between atoms: _247  and  _249
REMARK   90  A    between atoms: _249  and  _250
REMARK   91  A    between atoms: _249  and  _252
REMARK   92  A    between atoms: _255  and  _257
REMARK   93  A    between atoms: _257  and  _258
REMARK   94  A    between atoms: _257  and  _260
REMARK   95  A    between atoms: _260  and  _261
REMARK   96  A    between atoms: _264  and  _266
REMARK   97  A    between atoms: _266  and  _267
REMARK   98  A    between atoms: _270  and  _272
REMARK   99  A    between atoms: _272  and  _273
REMARK  100  A    between atoms: _272  and  _275
REMARK  101  A    between atoms: _275  and  _276
REMARK  102  A    between atoms: _279  and  _281
REMARK  103  A    between atoms: _281  and  _282
REMARK  104  A    between atoms: _281  and  _284
REMARK  105  A    between atoms: _284  and  _285
REMARK  106  A    between atoms: _288  and  _290
REMARK  107  A    between atoms: _290  and  _291
REMARK  108  A    between atoms: _290  and  _293
REMARK  109  A    between atoms: _293  and  _294
REMARK  110  A    between atoms: _294  and  _295
REMARK                            x       y       z     vdW  Elec       q    Type
REMARK                         _______ _______ _______ _____ _____    ______ ____
ROOT
ATOM      1  CA  TYR A   1      14.632  13.741  12.714  0.00  0.00    +0.149 C 
ENDROOT
BRANCH   1   2
ATOM      2  C   TYR A   1      13.222  13.656  12.180  0.00  0.00    +0.239 C 
ATOM      3  O   TYR A   1      12.262  13.649  12.940  0.00  0.00    -0.274 OA
ATOM      4  N   ILE A   2      13.090  13.606  10.862  0.00  0.00    -0.298 N 
ATOM      5  H   ILE A   2      13.933  13.636  10.254  0.00  0.00    +0.150 HD
BRANCH   4   6
ATOM      6  CA  ILE A   2      11.783  13.510  10.272  0.00  0.00    +0.137 C 
BRANCH   6   7
ATOM      7  CB  ILE A   2      11.410  14.709   9.499  0.00  0.00    +0.026 C 
ATOM      8  CG2 ILE A   2      11.547  16.064  10.356  0.00  0.00    +0.002 C 
BRANCH   7   9
ATOM      9  CG1 ILE A   2      12.142  14.785   8.176  0.00  0.00    +0.002 C 
ATOM     10  CD1 ILE A   2      11.481  15.817   7.260  0.00  0.00    +0.000 C 
ENDBRANCH   7   9
ENDBRANCH   6   7
BRANCH   6  11
ATOM     11  C   ILE A   2      11.554  12.291   9.376  0.00  0.00    +0.227 C 
ATOM     12  O   ILE A   2      12.469  11.766   8.767  0.00  0.00    -0.286 OA
ENDBRANCH   6  11
ENDBRANCH   4   6
ENDBRANCH   1   2
BRANCH   1  13
ATOM     13  N   TYR A   1      14.763  14.741  13.769  0.00  0.00    -0.238 NA
ATOM     14  H   TYR A   1      15.042  14.435  14.723  0.00  0.00    +0.142 HD
ENDBRANCH   1  13
BRANCH   1  15
ATOM     15  CB  TYR A   1      15.039  12.396  13.248  0.00  0.00    +0.053 C 
BRANCH  15  16
ATOM     16  CG  TYR A   1      14.797  11.253  12.324  0.00  0.00    -0.020 A 
ATOM     17  CD2 TYR A   1      13.587  10.572  12.348  0.00  0.00    -0.001 A 
ATOM     18  CE2 TYR A   1      13.374   9.485  11.558  0.00  0.00    +0.036 A 
ATOM     19  CZ  TYR A   1      14.421   9.037  10.707  0.00  0.00    +0.134 A 
ATOM     20  CE1 TYR A   1      15.625   9.652  10.703  0.00  0.00    +0.036 A 
ATOM     21  CD1 TYR A   1      15.812  10.783  11.486  0.00  0.00    -0.001 A 
BRANCH  19  22
ATOM     22  OH  TYR A   1      14.263   7.918   9.908  0.00  0.00    -0.506 OA
ATOM     23  HH  TYR A   1      15.093   7.764   9.390  0.00  0.00    +0.292 HD
ENDBRANCH  19  22
ENDBRANCH  15  16
ENDBRANCH   1  15
TORSDOF 9
REMARK  Name = ../refined-set-2016/3ovn/3ovn_pocket.pdb
REMARK  110 active torsions:
REMARK  status: ('A' for Active; 'I' for Inactive)
REMARK    1  A    between atoms: _1  and  _3
REMARK    2  A    between atoms: _3  and  _4
REMARK    3  A    between atoms: _3  and  _6
REMARK    4  A    between atoms: _6  and  _7
REMARK    5  A    between atoms: _12  and  _13
REMARK    6  A    between atoms: _15  and  _17
REMARK    7  A    between atoms: _17  and  _18
REMARK    8  A    between atoms: _17  and  _20
REMARK    9  A    between atoms: _20  and  _21
REMARK   10  A    between atoms: _24  and  _26
REMARK   11  A    between atoms: _26  and  _27
REMARK   12  A    between atoms: _26  and  _29
REMARK   13  A    between atoms: _29  and  _30
REMARK   14  A    between atoms: _40  and  _42
REMARK   15  A    between atoms: _42  and  _43
REMARK   16  A    between atoms: _42  and  _45
REMARK   17  A    between atoms: _45  and  _46
REMARK   18  A    between atoms: _52  and  _54
REMARK   19  A    between atoms: _54  and  _55
REMARK   20  A    between atoms: _54  and  _57
REMARK   21  A    between atoms: _57  and  _58
REMARK   22  A    between atoms: _63  and  _65
REMARK   23  A    between atoms: _65  and  _66
REMARK   24  A    between atoms: _65  and  _68
REMARK   25  A    between atoms: _68  and  _69
REMARK   26  A    between atoms: _74  and  _76
REMARK   27  A    between atoms: _76  and  _77
REMARK   28  A    between atoms: _76  and  _79
REMARK   29  A    between atoms: _79  and  _80
REMARK   30  A    between atoms: _80  and  _81
REMARK   31  A    between atoms: _81  and  _82
REMARK   32  A    between atoms: _91  and  _93
REMARK   33  A    between atoms: _93  and  _94
REMARK   34  A    between atoms: _93  and  _96
REMARK   35  A    between atoms: _96  and  _97
REMARK   36  A    between atoms: _99  and  _101
REMARK   37  A    between atoms: _101  and  _102
REMARK   38  A    between atoms: _105  and  _107
REMARK   39  A    between atoms: _107  and  _108
REMARK   40  A    between atoms: _110  and  _112
REMARK   41  A    between atoms: _112  and  _113
REMARK   42  A    between atoms: _112  and  _115
REMARK   43  A    between atoms: _115  and  _116
REMARK   44  A    between atoms: _116  and  _117
REMARK   45  A    between atoms: _120  and  _122
REMARK   46  A    between atoms: _122  and  _123
REMARK   47  A    between atoms: _122  and  _125
REMARK   48  A    between atoms: _125  and  _126
REMARK   49  A    between atoms: _126  and  _127
REMARK   50  A    between atoms: _127  and  _128
REMARK   51  A    between atoms: _137  and  _139
REMARK   52  A    between atoms: _139  and  _140
REMARK   53  A    between atoms: _139  and  _142
REMARK   54  A    between atoms: _142  and  _143
REMARK   55  A    between atoms: _146  and  _148
REMARK   56  A    between atoms: _148  and  _149
REMARK   57  A    between atoms: _148  and  _151
REMARK   58  A    between atoms: _154  and  _156
REMARK   59  A    between atoms: _156  and  _157
REMARK   60  A    between atoms: _156  and  _159
REMARK   61  A    between atoms: _159  and  _160
REMARK   62  A    between atoms: _164  and  _165
REMARK   63  A    between atoms: _170  and  _172
REMARK   64  A    between atoms: _172  and  _173
REMARK   65  A    between atoms: _172  and  _175
REMARK   66  A    between atoms: _175  and  _176
REMARK   67  A    between atoms: _179  and  _181
REMARK   68  A    between atoms: _181  and  _182
REMARK   69  A    between atoms: _185  and  _187
REMARK   70  A    between atoms: _187  and  _188
REMARK   71  A    between atoms: _190  and  _192
REMARK   72  A    between atoms: _192  and  _193
REMARK   73  A    between atoms: _192  and  _195
REMARK   74  A    between atoms: _195  and  _196
REMARK   75  A    between atoms: _196  and  _197
REMARK   76  A    between atoms: _197  and  _198
REMARK   77  A    between atoms: _207  and  _209
REMARK   78  A    between atoms: _209  and  _210
REMARK   79  A    between atoms: _209  and  _212
REMARK   80  A    between atoms: _212  and  _213
REMARK   81  A    between atoms: _224  and  _225
REMARK   82  A    between atoms: _230  and  _232
REMARK   83  A    between atoms: _232  and  _233
REMARK   84  A    between atoms: _232  and  _235
REMARK   85  A    between atoms: _238  and  _240
REMARK   86  A    between atoms: _240  and  _241
REMARK   87  A    between atoms: _240  and  _243
REMARK   88  A    between atoms: _243  and  _244
REMARK   89  A    between atoms: _247  and  _249
REMARK   90  A    between atoms: _249  and  _250
REMARK   91  A    between atoms: _249  and  _252
REMARK   92  A    between atoms: _255  and  _257
REMARK   93  A    between atoms: _257  and  _258
REMARK   94  A    between atoms: _257  and  _260
REMARK   95  A    between atoms: _260  and  _261
REMARK   96  A    between atoms: _264  and  _266
REMARK   97  A    between atoms: _266  and  _267
REMARK   98  A    between atoms: _270  and  _272
REMARK   99  A    between atoms: _272  and  _273
REMARK  100  A    between atoms: _272  and  _275
REMARK  101  A    between atoms: _275  and  _276
REMARK  102  A    between atoms: _279  and  _281
REMARK  103  A    between atoms: _281  and  _282
REMARK  104  A    between atoms: _281  and  _284
REMARK  105  A    between atoms: _284  and  _285
REMARK  106  A    between atoms: _288  and  _290
REMARK  107  A    between atoms: _290  and  _291
REMARK  108  A    between atoms: _290  and  _293
REMARK  109  A    between atoms: _293  and  _294
REMARK  110  A    between atoms: _294  and  _295
REMARK                            x       y       z     vdW  Elec       q    Type
REMARK                         _______ _______ _______ _____ _____    ______ ____
ROOT
ATOM      1  CG  TRP A   1      11.837   5.517  14.181  0.00  0.00    -0.002 A 
ATOM      2  CD2 TRP A   1      13.258   5.632  14.166  0.00  0.00    +0.013 A 
ATOM      3  CE3 TRP A   1      14.254   5.387  15.110  0.00  0.00    +0.001 A 
ATOM      4  CZ3 TRP A   1      15.567   5.548  14.750  0.00  0.00    +0.000 A 
ATOM      5  CH2 TRP A   1      15.920   5.960  13.442  0.00  0.00    +0.001 A 
ATOM      6  CZ2 TRP A   1      14.970   6.187  12.488  0.00  0.00    +0.017 A 
ATOM      7  CE2 TRP A   1      13.636   6.007  12.853  0.00  0.00    +0.056 A 
ATOM      8  NE1 TRP A   1      12.491   6.155  12.113  0.00  0.00    -0.352 N 
ATOM      9  HE1 TRP A   1      12.445   6.457  11.119  0.00  0.00    +0.166 HD
ATOM     10  CD1 TRP A   1      11.409   5.836  12.910  0.00  0.00    +0.068 A 
ENDROOT
BRANCH   1  11
ATOM     11  CB  TRP A   1      11.006   5.141  15.329  0.00  0.00    +0.053 C 
BRANCH  11  12
ATOM     12  CA  TRP A   1      10.920   3.629  15.571  0.00  0.00    +0.137 C 
BRANCH  12  13
ATOM     13  N   TRP A   1      10.292   2.971  14.460  0.00  0.00    -0.239 NA
ATOM     14  H   TRP A   1       9.254   3.005  14.402  0.00  0.00    +0.142 HD
ENDBRANCH  12  13
BRANCH  12  15
ATOM     15  C   TRP A   1      10.062   3.401  16.826  0.00  0.00    +0.224 C 
ATOM     16  O   TRP A   1       8.881   3.040  16.708  0.00  0.00    -0.287 OA
ENDBRANCH  12  15
ENDBRANCH  11  12
ENDBRANCH   1  11
TORSDOF 4
REMARK  Name = ../refined-set-2016/3ovn/3ovn_pocket.pdb
REMARK  110 active torsions:
REMARK  status: ('A' for Active; 'I' for Inactive)
REMARK    1  A    between atoms: _1  and  _3
REMARK    2  A    between atoms: _3  and  _4
REMARK    3  A    between atoms: _3  and  _6
REMARK    4  A    between atoms: _6  and  _7
REMARK    5  A    between atoms: _12  and  _13
REMARK    6  A    between atoms: _15  and  _17
REMARK    7  A    between atoms: _17  and  _18
REMARK    8  A    between atoms: _17  and  _20
REMARK    9  A    between atoms: _20  and  _21
REMARK   10  A    between atoms: _24  and  _26
REMARK   11  A    between atoms: _26  and  _27
REMARK   12  A    between atoms: _26  and  _29
REMARK   13  A    between atoms: _29  and  _30
REMARK   14  A    between atoms: _40  and  _42
REMARK   15  A    between atoms: _42  and  _43
REMARK   16  A    between atoms: _42  and  _45
REMARK   17  A    between atoms: _45  and  _46
REMARK   18  A    between atoms: _52  and  _54
REMARK   19  A    between atoms: _54  and  _55
REMARK   20  A    between atoms: _54  and  _57
REMARK   21  A    between atoms: _57  and  _58
REMARK   22  A    between atoms: _63  and  _65
REMARK   23  A    between atoms: _65  and  _66
REMARK   24  A    between atoms: _65  and  _68
REMARK   25  A    between atoms: _68  and  _69
REMARK   26  A    between atoms: _74  and  _76
REMARK   27  A    between atoms: _76  and  _77
REMARK   28  A    between atoms: _76  and  _79
REMARK   29  A    between atoms: _79  and  _80
REMARK   30  A    between atoms: _80  and  _81
REMARK   31  A    between atoms: _81  and  _82
REMARK   32  A    between atoms: _91  and  _93
REMARK   33  A    between atoms: _93  and  _94
REMARK   34  A    between atoms: _93  and  _96
REMARK   35  A    between atoms: _96  and  _97
REMARK   36  A    between atoms: _99  and  _101
REMARK   37  A    between atoms: _101  and  _102
REMARK   38  A    between atoms: _105  and  _107
REMARK   39  A    between atoms: _107  and  _108
REMARK   40  A    between atoms: _110  and  _112
REMARK   41  A    between atoms: _112  and  _113
REMARK   42  A    between atoms: _112  and  _115
REMARK   43  A    between atoms: _115  and  _116
REMARK   44  A    between atoms: _116  and  _117
REMARK   45  A    between atoms: _120  and  _122
REMARK   46  A    between atoms: _122  and  _123
REMARK   47  A    between atoms: _122  and  _125
REMARK   48  A    between atoms: _125  and  _126
REMARK   49  A    between atoms: _126  and  _127
REMARK   50  A    between atoms: _127  and  _128
REMARK   51  A    between atoms: _137  and  _139
REMARK   52  A    between atoms: _139  and  _140
REMARK   53  A    between atoms: _139  and  _142
REMARK   54  A    between atoms: _142  and  _143
REMARK   55  A    between atoms: _146  and  _148
REMARK   56  A    between atoms: _148  and  _149
REMARK   57  A    between atoms: _148  and  _151
REMARK   58  A    between atoms: _154  and  _156
REMARK   59  A    between atoms: _156  and  _157
REMARK   60  A    between atoms: _156  and  _159
REMARK   61  A    between atoms: _159  and  _160
REMARK   62  A    between atoms: _164  and  _165
REMARK   63  A    between atoms: _170  and  _172
REMARK   64  A    between atoms: _172  and  _173
REMARK   65  A    between atoms: _172  and  _175
REMARK   66  A    between atoms: _175  and  _176
REMARK   67  A    between atoms: _179  and  _181
REMARK   68  A    between atoms: _181  and  _182
REMARK   69  A    between atoms: _185  and  _187
REMARK   70  A    between atoms: _187  and  _188
REMARK   71  A    between atoms: _190  and  _192
REMARK   72  A    between atoms: _192  and  _193
REMARK   73  A    between atoms: _192  and  _195
REMARK   74  A    between atoms: _195  and  _196
REMARK   75  A    between atoms: _196  and  _197
REMARK   76  A    between atoms: _197  and  _198
REMARK   77  A    between atoms: _207  and  _209
REMARK   78  A    between atoms: _209  and  _210
REMARK   79  A    between atoms: _209  and  _212
REMARK   80  A    between atoms: _212  and  _213
REMARK   81  A    between atoms: _224  and  _225
REMARK   82  A    between atoms: _230  and  _232
REMARK   83  A    between atoms: _232  and  _233
REMARK   84  A    between atoms: _232  and  _235
REMARK   85  A    between atoms: _238  and  _240
REMARK   86  A    between atoms: _240  and  _241
REMARK   87  A    between atoms: _240  and  _243
REMARK   88  A    between atoms: _243  and  _244
REMARK   89  A    between atoms: _247  and  _249
REMARK   90  A    between atoms: _249  and  _250
REMARK   91  A    between atoms: _249  and  _252
REMARK   92  A    between atoms: _255  and  _257
REMARK   93  A    between atoms: _257  and  _258
REMARK   94  A    between atoms: _257  and  _260
REMARK   95  A    between atoms: _260  and  _261
REMARK   96  A    between atoms: _264  and  _266
REMARK   97  A    between atoms: _266  and  _267
REMARK   98  A    between atoms: _270  and  _272
REMARK   99  A    between atoms: _272  and  _273
REMARK  100  A    between atoms: _272  and  _275
REMARK  101  A    between atoms: _275  and  _276
REMARK  102  A    between atoms: _279  and  _281
REMARK  103  A    between atoms: _281  and  _282
REMARK  104  A    between atoms: _281  and  _284
REMARK  105  A    between atoms: _284  and  _285
REMARK  106  A    between atoms: _288  and  _290
REMARK  107  A    between atoms: _290  and  _291
REMARK  108  A    between atoms: _290  and  _293
REMARK  109  A    between atoms: _293  and  _294
REMARK  110  A    between atoms: _294  and  _295
REMARK                            x       y       z     vdW  Elec       q    Type
REMARK                         _______ _______ _______ _____ _____    ______ ____
ROOT
ATOM      1  CB  PHE A   1      17.443  12.277   1.702  0.00  0.00    +0.051 C 
ENDROOT
BRANCH   1   2
ATOM      2  CG  PHE A   1      18.838  11.797   1.523  0.00  0.00    -0.020 A 
ATOM      3  CD2 PHE A   1      19.094  10.427   1.482  0.00  0.00    -0.004 A 
ATOM      4  CE2 PHE A   1      20.302   9.996   1.299  0.00  0.00    -0.000 A 
ATOM      5  CZ  PHE A   1      21.381  10.882   1.164  0.00  0.00    -0.000 A 
ATOM      6  CE1 PHE A   1      21.160  12.222   1.208  0.00  0.00    -0.000 A 
ATOM      7  CD1 PHE A   1      19.896  12.671   1.370  0.00  0.00    -0.004 A 
ENDBRANCH   1   2
BRANCH   1   8
ATOM      8  CA  PHE A   1      17.132  12.793   3.110  0.00  0.00    +0.137 C 
BRANCH   8   9
ATOM      9  N   PHE A   1      15.753  13.189   3.174  0.00  0.00    -0.239 NA
ATOM     10  H   PHE A   1      15.142  12.966   2.363  0.00  0.00    +0.142 HD
ENDBRANCH   8   9
BRANCH   8  11
ATOM     11  C   PHE A   1      18.057  13.957   3.455  0.00  0.00    +0.224 C 
ATOM     12  O   PHE A   1      18.865  13.819   4.330  0.00  0.00    -0.287 OA
ENDBRANCH   8  11
ENDBRANCH   1   8
TORSDOF 4
REMARK  Name = ../refined-set-2016/3ovn/3ovn_pocket.pdb
REMARK  110 active torsions:
REMARK  status: ('A' for Active; 'I' for Inactive)
REMARK    1  A    between atoms: _1  and  _3
REMARK    2  A    between atoms: _3  and  _4
REMARK    3  A    between atoms: _3  and  _6
REMARK    4  A    between atoms: _6  and  _7
REMARK    5  A    between atoms: _12  and  _13
REMARK    6  A    between atoms: _15  and  _17
REMARK    7  A    between atoms: _17  and  _18
REMARK    8  A    between atoms: _17  and  _20
REMARK    9  A    between atoms: _20  and  _21
REMARK   10  A    between atoms: _24  and  _26
REMARK   11  A    between atoms: _26  and  _27
REMARK   12  A    between atoms: _26  and  _29
REMARK   13  A    between atoms: _29  and  _30
REMARK   14  A    between atoms: _40  and  _42
REMARK   15  A    between atoms: _42  and  _43
REMARK   16  A    between atoms: _42  and  _45
REMARK   17  A    between atoms: _45  and  _46
REMARK   18  A    between atoms: _52  and  _54
REMARK   19  A    between atoms: _54  and  _55
REMARK   20  A    between atoms: _54  and  _57
REMARK   21  A    between atoms: _57  and  _58
REMARK   22  A    between atoms: _63  and  _65
REMARK   23  A    between atoms: _65  and  _66
REMARK   24  A    between atoms: _65  and  _68
REMARK   25  A    between atoms: _68  and  _69
REMARK   26  A    between atoms: _74  and  _76
REMARK   27  A    between atoms: _76  and  _77
REMARK   28  A    between atoms: _76  and  _79
REMARK   29  A    between atoms: _79  and  _80
REMARK   30  A    between atoms: _80  and  _81
REMARK   31  A    between atoms: _81  and  _82
REMARK   32  A    between atoms: _91  and  _93
REMARK   33  A    between atoms: _93  and  _94
REMARK   34  A    between atoms: _93  and  _96
REMARK   35  A    between atoms: _96  and  _97
REMARK   36  A    between atoms: _99  and  _101
REMARK   37  A    between atoms: _101  and  _102
REMARK   38  A    between atoms: _105  and  _107
REMARK   39  A    between atoms: _107  and  _108
REMARK   40  A    between atoms: _110  and  _112
REMARK   41  A    between atoms: _112  and  _113
REMARK   42  A    between atoms: _112  and  _115
REMARK   43  A    between atoms: _115  and  _116
REMARK   44  A    between atoms: _116  and  _117
REMARK   45  A    between atoms: _120  and  _122
REMARK   46  A    between atoms: _122  and  _123
REMARK   47  A    between atoms: _122  and  _125
REMARK   48  A    between atoms: _125  and  _126
REMARK   49  A    between atoms: _126  and  _127
REMARK   50  A    between atoms: _127  and  _128
REMARK   51  A    between atoms: _137  and  _139
REMARK   52  A    between atoms: _139  and  _140
REMARK   53  A    between atoms: _139  and  _142
REMARK   54  A    between atoms: _142  and  _143
REMARK   55  A    between atoms: _146  and  _148
REMARK   56  A    between atoms: _148  and  _149
REMARK   57  A    between atoms: _148  and  _151
REMARK   58  A    between atoms: _154  and  _156
REMARK   59  A    between atoms: _156  and  _157
REMARK   60  A    between atoms: _156  and  _159
REMARK   61  A    between atoms: _159  and  _160
REMARK   62  A    between atoms: _164  and  _165
REMARK   63  A    between atoms: _170  and  _172
REMARK   64  A    between atoms: _172  and  _173
REMARK   65  A    between atoms: _172  and  _175
REMARK   66  A    between atoms: _175  and  _176
REMARK   67  A    between atoms: _179  and  _181
REMARK   68  A    between atoms: _181  and  _182
REMARK   69  A    between atoms: _185  and  _187
REMARK   70  A    between atoms: _187  and  _188
REMARK   71  A    between atoms: _190  and  _192
REMARK   72  A    between atoms: _192  and  _193
REMARK   73  A    between atoms: _192  and  _195
REMARK   74  A    between atoms: _195  and  _196
REMARK   75  A    between atoms: _196  and  _197
REMARK   76  A    between atoms: _197  and  _198
REMARK   77  A    between atoms: _207  and  _209
REMARK   78  A    between atoms: _209  and  _210
REMARK   79  A    between atoms: _209  and  _212
REMARK   80  A    between atoms: _212  and  _213
REMARK   81  A    between atoms: _224  and  _225
REMARK   82  A    between atoms: _230  and  _232
REMARK   83  A    between atoms: _232  and  _233
REMARK   84  A    between atoms: _232  and  _235
REMARK   85  A    between atoms: _238  and  _240
REMARK   86  A    between atoms: _240  and  _241
REMARK   87  A    between atoms: _240  and  _243
REMARK   88  A    between atoms: _243  and  _244
REMARK   89  A    between atoms: _247  and  _249
REMARK   90  A    between atoms: _249  and  _250
REMARK   91  A    between atoms: _249  and  _252
REMARK   92  A    between atoms: _255  and  _257
REMARK   93  A    between atoms: _257  and  _258
REMARK   94  A    between atoms: _257  and  _260
REMARK   95  A    between atoms: _260  and  _261
REMARK   96  A    between atoms: _264  and  _266
REMARK   97  A    between atoms: _266  and  _267
REMARK   98  A    between atoms: _270  and  _272
REMARK   99  A    between atoms: _272  and  _273
REMARK  100  A    between atoms: _272  and  _275
REMARK  101  A    between atoms: _275  and  _276
REMARK  102  A    between atoms: _279  and  _281
REMARK  103  A    between atoms: _281  and  _282
REMARK  104  A    between atoms: _281  and  _284
REMARK  105  A    between atoms: _284  and  _285
REMARK  106  A    between atoms: _288  and  _290
REMARK  107  A    between atoms: _290  and  _291
REMARK  108  A    between atoms: _290  and  _293
REMARK  109  A    between atoms: _293  and  _294
REMARK  110  A    between atoms: _294  and  _295
REMARK                            x       y       z     vdW  Elec       q    Type
REMARK                         _______ _______ _______ _____ _____    ______ ____
ROOT
ATOM      1  C   ASN A   1      19.608  14.061   8.194  0.00  0.00    +0.239 C 
ATOM      2  O   ASN A   1      20.129  13.616   9.198  0.00  0.00    -0.274 OA
ATOM      3  N   HIS A   2      20.291  14.360   7.090  0.00  0.00    -0.298 N 
ATOM      4  H   HIS A   2      19.767  14.739   6.275  0.00  0.00    +0.150 HD
ENDROOT
BRANCH   1   5
ATOM      5  CA  ASN A   1      18.090  14.242   8.167  0.00  0.00    +0.154 C 
BRANCH   5   6
ATOM      6  N   ASN A   1      17.615  15.164   7.190  0.00  0.00    -0.238 NA
ATOM      7  H   ASN A   1      17.083  14.814   6.368  0.00  0.00    +0.142 HD
ENDBRANCH   5   6
BRANCH   5   8
ATOM      8  CB  ASN A   1      17.412  12.870   7.990  0.00  0.00    +0.111 C 
BRANCH   8   9
ATOM      9  CG  ASN A   1      15.953  12.847   8.451  0.00  0.00    +0.221 C 
ATOM     10  OD1 ASN A   1      15.500  13.728   9.181  0.00  0.00    -0.275 OA
ATOM     11  ND2 ASN A   1      15.196  11.799   8.028  0.00  0.00    -0.329 N 
ATOM     12 HD21 ASN A   1      14.201  11.724   8.321  0.00  0.00    +0.145 HD
ATOM     13 HD22 ASN A   1      15.612  11.072   7.411  0.00  0.00    +0.145 HD
ENDBRANCH   8   9
ENDBRANCH   5   8
ENDBRANCH   1   5
BRANCH   3  14
ATOM     14  CA  HIS A   2      21.738  14.184   6.961  0.00  0.00    +0.143 C 
BRANCH  14  15
ATOM     15  C   HIS A   2      22.500  15.455   7.231  0.00  0.00    +0.227 C 
ATOM     16  O   HIS A   2      23.700  15.410   7.300  0.00  0.00    -0.286 OA
ENDBRANCH  14  15
BRANCH  14  17
ATOM     17  CB  HIS A   2      22.114  13.714   5.543  0.00  0.00    +0.075 C 
BRANCH  17  18
ATOM     18  CG  HIS A   2      21.864  12.267   5.311  0.00  0.00    +0.082 A 
ATOM     19  CD2 HIS A   2      22.671  11.194   5.470  0.00  0.00    +0.115 A 
ATOM     20  NE2 HIS A   2      21.940  10.079   5.143  0.00  0.00    -0.221 NA
ATOM     21  CE1 HIS A   2      20.710  10.451   4.819  0.00  0.00    +0.199 A 
ATOM     22  ND1 HIS A   2      20.639  11.769   4.905  0.00  0.00    -0.227 NA
ENDBRANCH  17  18
ENDBRANCH  14  17
ENDBRANCH   3  14
TORSDOF 8
REMARK  Name = ../refined-set-2016/3ovn/3ovn_pocket.pdb
REMARK  110 active torsions:
REMARK  status: ('A' for Active; 'I' for Inactive)
REMARK    1  A    between atoms: _1  and  _3
REMARK    2  A    between atoms: _3  and  _4
REMARK    3  A    between atoms: _3  and  _6
REMARK    4  A    between atoms: _6  and  _7
REMARK    5  A    between atoms: _12  and  _13
REMARK    6  A    between atoms: _15  and  _17
REMARK    7  A    between atoms: _17  and  _18
REMARK    8  A    between atoms: _17  and  _20
REMARK    9  A    between atoms: _20  and  _21
REMARK   10  A    between atoms: _24  and  _26
REMARK   11  A    between atoms: _26  and  _27
REMARK   12  A    between atoms: _26  and  _29
REMARK   13  A    between atoms: _29  and  _30
REMARK   14  A    between atoms: _40  and  _42
REMARK   15  A    between atoms: _42  and  _43
REMARK   16  A    between atoms: _42  and  _45
REMARK   17  A    between atoms: _45  and  _46
REMARK   18  A    between atoms: _52  and  _54
REMARK   19  A    between atoms: _54  and  _55
REMARK   20  A    between atoms: _54  and  _57
REMARK   21  A    between atoms: _57  and  _58
REMARK   22  A    between atoms: _63  and  _65
REMARK   23  A    between atoms: _65  and  _66
REMARK   24  A    between atoms: _65  and  _68
REMARK   25  A    between atoms: _68  and  _69
REMARK   26  A    between atoms: _74  and  _76
REMARK   27  A    between atoms: _76  and  _77
REMARK   28  A    between atoms: _76  and  _79
REMARK   29  A    between atoms: _79  and  _80
REMARK   30  A    between atoms: _80  and  _81
REMARK   31  A    between atoms: _81  and  _82
REMARK   32  A    between atoms: _91  and  _93
REMARK   33  A    between atoms: _93  and  _94
REMARK   34  A    between atoms: _93  and  _96
REMARK   35  A    between atoms: _96  and  _97
REMARK   36  A    between atoms: _99  and  _101
REMARK   37  A    between atoms: _101  and  _102
REMARK   38  A    between atoms: _105  and  _107
REMARK   39  A    between atoms: _107  and  _108
REMARK   40  A    between atoms: _110  and  _112
REMARK   41  A    between atoms: _112  and  _113
REMARK   42  A    between atoms: _112  and  _115
REMARK   43  A    between atoms: _115  and  _116
REMARK   44  A    between atoms: _116  and  _117
REMARK   45  A    between atoms: _120  and  _122
REMARK   46  A    between atoms: _122  and  _123
REMARK   47  A    between atoms: _122  and  _125
REMARK   48  A    between atoms: _125  and  _126
REMARK   49  A    between atoms: _126  and  _127
REMARK   50  A    between atoms: _127  and  _128
REMARK   51  A    between atoms: _137  and  _139
REMARK   52  A    between atoms: _139  and  _140
REMARK   53  A    between atoms: _139  and  _142
REMARK   54  A    between atoms: _142  and  _143
REMARK   55  A    between atoms: _146  and  _148
REMARK   56  A    between atoms: _148  and  _149
REMARK   57  A    between atoms: _148  and  _151
REMARK   58  A    between atoms: _154  and  _156
REMARK   59  A    between atoms: _156  and  _157
REMARK   60  A    between atoms: _156  and  _159
REMARK   61  A    between atoms: _159  and  _160
REMARK   62  A    between atoms: _164  and  _165
REMARK   63  A    between atoms: _170  and  _172
REMARK   64  A    between atoms: _172  and  _173
REMARK   65  A    between atoms: _172  and  _175
REMARK   66  A    between atoms: _175  and  _176
REMARK   67  A    between atoms: _179  and  _181
REMARK   68  A    between atoms: _181  and  _182
REMARK   69  A    between atoms: _185  and  _187
REMARK   70  A    between atoms: _187  and  _188
REMARK   71  A    between atoms: _190  and  _192
REMARK   72  A    between atoms: _192  and  _193
REMARK   73  A    between atoms: _192  and  _195
REMARK   74  A    between atoms: _195  and  _196
REMARK   75  A    between atoms: _196  and  _197
REMARK   76  A    between atoms: _197  and  _198
REMARK   77  A    between atoms: _207  and  _209
REMARK   78  A    between atoms: _209  and  _210
REMARK   79  A    between atoms: _209  and  _212
REMARK   80  A    between atoms: _212  and  _213
REMARK   81  A    between atoms: _224  and  _225
REMARK   82  A    between atoms: _230  and  _232
REMARK   83  A    between atoms: _232  and  _233
REMARK   84  A    between atoms: _232  and  _235
REMARK   85  A    between atoms: _238  and  _240
REMARK   86  A    between atoms: _240  and  _241
REMARK   87  A    between atoms: _240  and  _243
REMARK   88  A    between atoms: _243  and  _244
REMARK   89  A    between atoms: _247  and  _249
REMARK   90  A    between atoms: _249  and  _250
REMARK   91  A    between atoms: _249  and  _252
REMARK   92  A    between atoms: _255  and  _257
REMARK   93  A    between atoms: _257  and  _258
REMARK   94  A    between atoms: _257  and  _260
REMARK   95  A    between atoms: _260  and  _261
REMARK   96  A    between atoms: _264  and  _266
REMARK   97  A    between atoms: _266  and  _267
REMARK   98  A    between atoms: _270  and  _272
REMARK   99  A    between atoms: _272  and  _273
REMARK  100  A    between atoms: _272  and  _275
REMARK  101  A    between atoms: _275  and  _276
REMARK  102  A    between atoms: _279  and  _281
REMARK  103  A    between atoms: _281  and  _282
REMARK  104  A    between atoms: _281  and  _284
REMARK  105  A    between atoms: _284  and  _285
REMARK  106  A    between atoms: _288  and  _290
REMARK  107  A    between atoms: _290  and  _291
REMARK  108  A    between atoms: _290  and  _293
REMARK  109  A    between atoms: _293  and  _294
REMARK  110  A    between atoms: _294  and  _295
REMARK                            x       y       z     vdW  Elec       q    Type
REMARK                         _______ _______ _______ _____ _____    ______ ____
ROOT
ATOM      1  NE  ARG A   1      28.910  16.872  10.814  0.00  0.00    -0.265 N 
ATOM      2  HE  ARG A   1      28.139  16.182  10.919  0.00  0.00    +0.259 HD
ATOM      3  CZ  ARG A   1      30.093  16.426  10.407  0.00  0.00    +0.342 C 
ATOM      4  NH2 ARG A   1      31.109  17.281  10.226  0.00  0.00    -0.292 N 
ATOM      5 HH21 ARG A   1      30.972  18.296  10.404  0.00  0.00    +0.255 HD
ATOM      6 HH22 ARG A   1      32.034  16.929   9.907  0.00  0.00    +0.255 HD
ATOM      7  NH1 ARG A   1      30.249  15.124  10.185  0.00  0.00    -0.292 N 
ATOM      8 HH11 ARG A   1      29.452  14.472  10.330  0.00  0.00    +0.255 HD
ATOM      9 HH12 ARG A   1      31.168  14.757   9.866  0.00  0.00    +0.255 HD
ENDROOT
BRANCH   1  10
ATOM     10  CD  ARG A   1      28.625  18.267  11.123  0.00  0.00    +0.174 C 
BRANCH  10  11
ATOM     11  CG  ARG A   1      27.190  18.465  11.346  0.00  0.00    +0.045 C 
BRANCH  11  12
ATOM     12  CB  ARG A   1      26.483  18.465  10.036  0.00  0.00    +0.029 C 
BRANCH  12  13
ATOM     13  CA  ARG A   1      24.973  18.540  10.211  0.00  0.00    +0.133 C 
BRANCH  13  14
ATOM     14  N   ARG A   1      24.292  18.320   8.952  0.00  0.00    -0.239 NA
ATOM     15  H   ARG A   1      24.832  18.372   8.064  0.00  0.00    +0.142 HD
ENDBRANCH  13  14
BRANCH  13  16
ATOM     16  C   ARG A   1      24.520  19.877  10.779  0.00  0.00    +0.224 C 
ATOM     17  O   ARG A   1      24.588  20.893  10.115  0.00  0.00    -0.287 OA
ENDBRANCH  13  16
ENDBRANCH  12  13
ENDBRANCH  11  12
ENDBRANCH  10  11
ENDBRANCH   1  10
TORSDOF 6
REMARK  Name = ../refined-set-2016/3ovn/3ovn_pocket.pdb
REMARK  110 active torsions:
REMARK  status: ('A' for Active; 'I' for Inactive)
REMARK    1  A    between atoms: _1  and  _3
REMARK    2  A    between atoms: _3  and  _4
REMARK    3  A    between atoms: _3  and  _6
REMARK    4  A    between atoms: _6  and  _7
REMARK    5  A    between atoms: _12  and  _13
REMARK    6  A    between atoms: _15  and  _17
REMARK    7  A    between atoms: _17  and  _18
REMARK    8  A    between atoms: _17  and  _20
REMARK    9  A    between atoms: _20  and  _21
REMARK   10  A    between atoms: _24  and  _26
REMARK   11  A    between atoms: _26  and  _27
REMARK   12  A    between atoms: _26  and  _29
REMARK   13  A    between atoms: _29  and  _30
REMARK   14  A    between atoms: _40  and  _42
REMARK   15  A    between atoms: _42  and  _43
REMARK   16  A    between atoms: _42  and  _45
REMARK   17  A    between atoms: _45  and  _46
REMARK   18  A    between atoms: _52  and  _54
REMARK   19  A    between atoms: _54  and  _55
REMARK   20  A    between atoms: _54  and  _57
REMARK   21  A    between atoms: _57  and  _58
REMARK   22  A    between atoms: _63  and  _65
REMARK   23  A    between atoms: _65  and  _66
REMARK   24  A    between atoms: _65  and  _68
REMARK   25  A    between atoms: _68  and  _69
REMARK   26  A    between atoms: _74  and  _76
REMARK   27  A    between atoms: _76  and  _77
REMARK   28  A    between atoms: _76  and  _79
REMARK   29  A    between atoms: _79  and  _80
REMARK   30  A    between atoms: _80  and  _81
REMARK   31  A    between atoms: _81  and  _82
REMARK   32  A    between atoms: _91  and  _93
REMARK   33  A    between atoms: _93  and  _94
REMARK   34  A    between atoms: _93  and  _96
REMARK   35  A    between atoms: _96  and  _97
REMARK   36  A    between atoms: _99  and  _101
REMARK   37  A    between atoms: _101  and  _102
REMARK   38  A    between atoms: _105  and  _107
REMARK   39  A    between atoms: _107  and  _108
REMARK   40  A    between atoms: _110  and  _112
REMARK   41  A    between atoms: _112  and  _113
REMARK   42  A    between atoms: _112  and  _115
REMARK   43  A    between atoms: _115  and  _116
REMARK   44  A    between atoms: _116  and  _117
REMARK   45  A    between atoms: _120  and  _122
REMARK   46  A    between atoms: _122  and  _123
REMARK   47  A    between atoms: _122  and  _125
REMARK   48  A    between atoms: _125  and  _126
REMARK   49  A    between atoms: _126  and  _127
REMARK   50  A    between atoms: _127  and  _128
REMARK   51  A    between atoms: _137  and  _139
REMARK   52  A    between atoms: _139  and  _140
REMARK   53  A    between atoms: _139  and  _142
REMARK   54  A    between atoms: _142  and  _143
REMARK   55  A    between atoms: _146  and  _148
REMARK   56  A    between atoms: _148  and  _149
REMARK   57  A    between atoms: _148  and  _151
REMARK   58  A    between atoms: _154  and  _156
REMARK   59  A    between atoms: _156  and  _157
REMARK   60  A    between atoms: _156  and  _159
REMARK   61  A    between atoms: _159  and  _160
REMARK   62  A    between atoms: _164  and  _165
REMARK   63  A    between atoms: _170  and  _172
REMARK   64  A    between atoms: _172  and  _173
REMARK   65  A    between atoms: _172  and  _175
REMARK   66  A    between atoms: _175  and  _176
REMARK   67  A    between atoms: _179  and  _181
REMARK   68  A    between atoms: _181  and  _182
REMARK   69  A    between atoms: _185  and  _187
REMARK   70  A    between atoms: _187  and  _188
REMARK   71  A    between atoms: _190  and  _192
REMARK   72  A    between atoms: _192  and  _193
REMARK   73  A    between atoms: _192  and  _195
REMARK   74  A    between atoms: _195  and  _196
REMARK   75  A    between atoms: _196  and  _197
REMARK   76  A    between atoms: _197  and  _198
REMARK   77  A    between atoms: _207  and  _209
REMARK   78  A    between atoms: _209  and  _210
REMARK   79  A    between atoms: _209  and  _212
REMARK   80  A    between atoms: _212  and  _213
REMARK   81  A    between atoms: _224  and  _225
REMARK   82  A    between atoms: _230  and  _232
REMARK   83  A    between atoms: _232  and  _233
REMARK   84  A    between atoms: _232  and  _235
REMARK   85  A    between atoms: _238  and  _240
REMARK   86  A    between atoms: _240  and  _241
REMARK   87  A    between atoms: _240  and  _243
REMARK   88  A    between atoms: _243  and  _244
REMARK   89  A    between atoms: _247  and  _249
REMARK   90  A    between atoms: _249  and  _250
REMARK   91  A    between atoms: _249  and  _252
REMARK   92  A    between atoms: _255  and  _257
REMARK   93  A    between atoms: _257  and  _258
REMARK   94  A    between atoms: _257  and  _260
REMARK   95  A    between atoms: _260  and  _261
REMARK   96  A    between atoms: _264  and  _266
REMARK   97  A    between atoms: _266  and  _267
REMARK   98  A    between atoms: _270  and  _272
REMARK   99  A    between atoms: _272  and  _273
REMARK  100  A    between atoms: _272  and  _275
REMARK  101  A    between atoms: _275  and  _276
REMARK  102  A    between atoms: _279  and  _281
REMARK  103  A    between atoms: _281  and  _282
REMARK  104  A    between atoms: _281  and  _284
REMARK  105  A    between atoms: _284  and  _285
REMARK  106  A    between atoms: _288  and  _290
REMARK  107  A    between atoms: _290  and  _291
REMARK  108  A    between atoms: _290  and  _293
REMARK  109  A    between atoms: _293  and  _294
REMARK  110  A    between atoms: _294  and  _295
REMARK                            x       y       z     vdW  Elec       q    Type
REMARK                         _______ _______ _______ _____ _____    ______ ____
ROOT
ATOM      1  CA  ARG A   5      20.917  12.499  17.100  0.00  0.00    +0.149 C 
ENDROOT
BRANCH   1   4
ATOM      2  C   GLU A   4      22.190  11.067  15.624  0.00  0.00    +0.241 C 
ATOM      3  O   GLU A   4      22.319  10.265  16.498  0.00  0.00    -0.273 OA
ATOM      4  N   ARG A   5      21.483  12.190  15.784  0.00  0.00    -0.297 N 
ATOM      5  H   ARG A   5      21.336  12.837  14.983  0.00  0.00    +0.150 HD
BRANCH   2   6
ATOM      6  CA  GLU A   4      22.821  10.785  14.283  0.00  0.00    +0.149 C 
BRANCH   6   9
ATOM      7  C   GLY A   3      20.746  10.489  12.980  0.00  0.00    +0.243 C 
ATOM      8  O   GLY A   3      20.405   9.483  13.581  0.00  0.00    -0.273 OA
ATOM      9  N   GLU A   4      21.884  11.142  13.211  0.00  0.00    -0.297 N 
ATOM     10  H   GLU A   4      22.121  11.948  12.599  0.00  0.00    +0.150 HD
BRANCH   7  11
ATOM     11  CA  GLY A   3      19.867  11.075  11.908  0.00  0.00    +0.176 C 
BRANCH  11  14
ATOM     12  C   ALA A   2      19.252  13.164  13.070  0.00  0.00    +0.241 C 
ATOM     13  O   ALA A   2      18.889  12.588  14.085  0.00  0.00    -0.273 OA
ATOM     14  N   GLY A   3      19.785  12.535  12.019  0.00  0.00    -0.295 N 
ATOM     15  H   GLY A   3      20.161  13.111  11.239  0.00  0.00    +0.150 HD
BRANCH  12  16
ATOM     16  CA  ALA A   2      19.196  14.670  13.003  0.00  0.00    +0.149 C 
ATOM     17  CB  ALA A   2      17.890  15.159  12.273  0.00  0.00    +0.031 C 
BRANCH  16  20
ATOM     18  C   SER A   1      21.644  14.945  12.833  0.00  0.00    +0.241 C 
ATOM     19  O   SER A   1      21.881  14.256  13.855  0.00  0.00    -0.274 OA
ATOM     20  N   ALA A   2      20.420  15.267  12.414  0.00  0.00    -0.297 N 
ATOM     21  H   ALA A   2      20.319  15.962  11.647  0.00  0.00    +0.150 HD
BRANCH  18  22
ATOM     22  CA  SER A   1      22.820  15.436  11.953  0.00  0.00    +0.174 C 
BRANCH  22  23
ATOM     23  N   SER A   1      24.057  15.318  12.705  0.00  0.00    -0.236 NA
ATOM     24  H   SER A   1      24.661  14.480  12.582  0.00  0.00    +0.142 HD
ENDBRANCH  22  23
BRANCH  22  25
ATOM     25  CB  SER A   1      22.923  14.606  10.718  0.00  0.00    +0.163 C 
BRANCH  25  26
ATOM     26  OG  SER A   1      22.991  13.255  11.072  0.00  0.00    -0.380 OA
ATOM     27  H   SER A   1      23.059  12.703  10.253  0.00  0.00    +0.211 HD
ENDBRANCH  25  26
ENDBRANCH  22  25
ENDBRANCH  18  22
ENDBRANCH  16  20
ENDBRANCH  12  16
ENDBRANCH  11  14
ENDBRANCH   7  11
ENDBRANCH   6   9
BRANCH   6  28
ATOM     28  CB  GLU A   4      24.158  11.542  14.153  0.00  0.00    +0.041 C 
BRANCH  28  29
ATOM     29  CG  GLU A   4      24.911  11.086  12.876  0.00  0.00    +0.116 C 
BRANCH  29  30
ATOM     30  CD  GLU A   4      26.076  11.986  12.494  0.00  0.00    +0.365 C 
ATOM     31  OE2 GLU A   4      25.953  13.206  12.491  0.00  0.00    -0.246 OA
ATOM     32  OE1 GLU A   4      27.121  11.433  12.149  0.00  0.00    -0.246 OA
ENDBRANCH  29  30
ENDBRANCH  28  29
ENDBRANCH   6  28
ENDBRANCH   2   6
ENDBRANCH   1   4
BRANCH   1  33
ATOM     33  C   ARG A   5      19.859  11.513  17.536  0.00  0.00    +0.241 C 
ATOM     34  O   ARG A   5      19.850  11.070  18.703  0.00  0.00    -0.273 OA
ATOM     35  N   ILE A   6      19.004  11.097  16.612  0.00  0.00    -0.297 N 
ATOM     36  H   ILE A   6      19.109  11.413  15.627  0.00  0.00    +0.150 HD
BRANCH  35  37
ATOM     37  CA  ILE A   6      17.914  10.195  16.976  0.00  0.00    +0.149 C 
BRANCH  37  38
ATOM     38  C   ILE A   6      18.428   8.873  17.450  0.00  0.00    +0.241 C 
ATOM     39  O   ILE A   6      18.053   8.443  18.504  0.00  0.00    -0.273 OA
ATOM     40  N   VAL A   7      19.351   8.268  16.720  0.00  0.00    -0.297 N 
ATOM     41  H   VAL A   7      19.651   8.730  15.838  0.00  0.00    +0.150 HD
BRANCH  40  42
ATOM     42  CA  VAL A   7      19.962   7.027  17.060  0.00  0.00    +0.149 C 
BRANCH  42  43
ATOM     43  C   VAL A   7      20.703   7.107  18.408  0.00  0.00    +0.241 C 
ATOM     44  O   VAL A   7      20.503   6.236  19.256  0.00  0.00    -0.273 OA
ATOM     45  N   ASP A   8      21.467   8.175  18.630  0.00  0.00    -0.298 N 
ATOM     46  H   ASP A   8      21.579   8.886  17.879  0.00  0.00    +0.150 HD
BRANCH  45  47
ATOM     47  CA  ASP A   8      22.147   8.367  19.898  0.00  0.00    +0.148 C 
BRANCH  47  48
ATOM     48  C   ASP A   8      21.170   8.539  21.090  0.00  0.00    +0.227 C 
ATOM     49  O   ASP A   8      21.417   7.998  22.167  0.00  0.00    -0.286 OA
ENDBRANCH  47  48
BRANCH  47  50
ATOM     50  CB  ASP A   8      23.043   9.591  19.856  0.00  0.00    +0.142 C 
BRANCH  50  51
ATOM     51  CG  ASP A   8      23.983   9.650  21.056  0.00  0.00    +0.367 C 
ATOM     52  OD2 ASP A   8      23.851  10.625  21.807  0.00  0.00    -0.246 OA
ATOM     53  OD1 ASP A   8      24.814   8.717  21.270  0.00  0.00    -0.246 OA
ENDBRANCH  50  51
ENDBRANCH  47  50
ENDBRANCH  45  47
ENDBRANCH  42  43
BRANCH  42  54
ATOM     54  CB  VAL A   7      20.883   6.617  15.931  0.00  0.00    +0.027 C 
ATOM     55  CG2 VAL A   7      21.973   5.801  16.398  0.00  0.00    +0.002 C 
ATOM     56  CG1 VAL A   7      20.044   5.991  14.753  0.00  0.00    +0.002 C 
ENDBRANCH  42  54
ENDBRANCH  40  42
ENDBRANCH  37  38
BRANCH  37  57
ATOM     57  CB  ILE A   6      16.769  10.058  15.916  0.00  0.00    +0.027 C 
ATOM     58  CG2 ILE A   6      17.300   9.416  14.615  0.00  0.00    +0.002 C 
BRANCH  57  59
ATOM     59  CG1 ILE A   6      15.611   9.232  16.515  0.00  0.00    +0.002 C 
ATOM     60  CD1 ILE A   6      14.349   9.201  15.645  0.00  0.00    +0.000 C 
ENDBRANCH  57  59
ENDBRANCH  37  57
ENDBRANCH  35  37
ENDBRANCH   1  33
BRANCH   1  61
ATOM     61  CB  ARG A   5      20.365  13.919  17.157  0.00  0.00    +0.033 C 
BRANCH  61  62
ATOM     62  CG  ARG A   5      21.464  14.936  17.185  0.00  0.00    +0.045 C 
BRANCH  62  63
ATOM     63  CD  ARG A   5      20.980  16.282  17.600  0.00  0.00    +0.174 C 
BRANCH  63  64
ATOM     64  NE  ARG A   5      19.982  16.817  16.696  0.00  0.00    -0.265 N 
ATOM     65  HE  ARG A   5      18.983  16.677  16.948  0.00  0.00    +0.259 HD
ATOM     66  CZ  ARG A   5      20.247  17.480  15.558  0.00  0.00    +0.342 C 
ATOM     67  NH2 ARG A   5      21.510  17.664  15.159  0.00  0.00    -0.292 N 
ATOM     68 HH21 ARG A   5      22.295  17.293  15.731  0.00  0.00    +0.255 HD
ATOM     69 HH22 ARG A   5      21.707  18.178  14.277  0.00  0.00    +0.255 HD
ATOM     70  NH1 ARG A   5      19.230  17.959  14.807  0.00  0.00    -0.292 N 
ATOM     71 HH11 ARG A   5      18.246  17.814  15.111  0.00  0.00    +0.255 HD
ATOM     72 HH12 ARG A   5      19.432  18.473  13.925  0.00  0.00    +0.255 HD
ENDBRANCH  63  64
ENDBRANCH  62  63
ENDBRANCH  61  62
ENDBRANCH   1  61
TORSDOF 30
REMARK  Name = ../refined-set-2016/3ovn/3ovn_pocket.pdb
REMARK  110 active torsions:
REMARK  status: ('A' for Active; 'I' for Inactive)
REMARK    1  A    between atoms: _1  and  _3
REMARK    2  A    between atoms: _3  and  _4
REMARK    3  A    between atoms: _3  and  _6
REMARK    4  A    between atoms: _6  and  _7
REMARK    5  A    between atoms: _12  and  _13
REMARK    6  A    between atoms: _15  and  _17
REMARK    7  A    between atoms: _17  and  _18
REMARK    8  A    between atoms: _17  and  _20
REMARK    9  A    between atoms: _20  and  _21
REMARK   10  A    between atoms: _24  and  _26
REMARK   11  A    between atoms: _26  and  _27
REMARK   12  A    between atoms: _26  and  _29
REMARK   13  A    between atoms: _29  and  _30
REMARK   14  A    between atoms: _40  and  _42
REMARK   15  A    between atoms: _42  and  _43
REMARK   16  A    between atoms: _42  and  _45
REMARK   17  A    between atoms: _45  and  _46
REMARK   18  A    between atoms: _52  and  _54
REMARK   19  A    between atoms: _54  and  _55
REMARK   20  A    between atoms: _54  and  _57
REMARK   21  A    between atoms: _57  and  _58
REMARK   22  A    between atoms: _63  and  _65
REMARK   23  A    between atoms: _65  and  _66
REMARK   24  A    between atoms: _65  and  _68
REMARK   25  A    between atoms: _68  and  _69
REMARK   26  A    between atoms: _74  and  _76
REMARK   27  A    between atoms: _76  and  _77
REMARK   28  A    between atoms: _76  and  _79
REMARK   29  A    between atoms: _79  and  _80
REMARK   30  A    between atoms: _80  and  _81
REMARK   31  A    between atoms: _81  and  _82
REMARK   32  A    between atoms: _91  and  _93
REMARK   33  A    between atoms: _93  and  _94
REMARK   34  A    between atoms: _93  and  _96
REMARK   35  A    between atoms: _96  and  _97
REMARK   36  A    between atoms: _99  and  _101
REMARK   37  A    between atoms: _101  and  _102
REMARK   38  A    between atoms: _105  and  _107
REMARK   39  A    between atoms: _107  and  _108
REMARK   40  A    between atoms: _110  and  _112
REMARK   41  A    between atoms: _112  and  _113
REMARK   42  A    between atoms: _112  and  _115
REMARK   43  A    between atoms: _115  and  _116
REMARK   44  A    between atoms: _116  and  _117
REMARK   45  A    between atoms: _120  and  _122
REMARK   46  A    between atoms: _122  and  _123
REMARK   47  A    between atoms: _122  and  _125
REMARK   48  A    between atoms: _125  and  _126
REMARK   49  A    between atoms: _126  and  _127
REMARK   50  A    between atoms: _127  and  _128
REMARK   51  A    between atoms: _137  and  _139
REMARK   52  A    between atoms: _139  and  _140
REMARK   53  A    between atoms: _139  and  _142
REMARK   54  A    between atoms: _142  and  _143
REMARK   55  A    between atoms: _146  and  _148
REMARK   56  A    between atoms: _148  and  _149
REMARK   57  A    between atoms: _148  and  _151
REMARK   58  A    between atoms: _154  and  _156
REMARK   59  A    between atoms: _156  and  _157
REMARK   60  A    between atoms: _156  and  _159
REMARK   61  A    between atoms: _159  and  _160
REMARK   62  A    between atoms: _164  and  _165
REMARK   63  A    between atoms: _170  and  _172
REMARK   64  A    between atoms: _172  and  _173
REMARK   65  A    between atoms: _172  and  _175
REMARK   66  A    between atoms: _175  and  _176
REMARK   67  A    between atoms: _179  and  _181
REMARK   68  A    between atoms: _181  and  _182
REMARK   69  A    between atoms: _185  and  _187
REMARK   70  A    between atoms: _187  and  _188
REMARK   71  A    between atoms: _190  and  _192
REMARK   72  A    between atoms: _192  and  _193
REMARK   73  A    between atoms: _192  and  _195
REMARK   74  A    between atoms: _195  and  _196
REMARK   75  A    between atoms: _196  and  _197
REMARK   76  A    between atoms: _197  and  _198
REMARK   77  A    between atoms: _207  and  _209
REMARK   78  A    between atoms: _209  and  _210
REMARK   79  A    between atoms: _209  and  _212
REMARK   80  A    between atoms: _212  and  _213
REMARK   81  A    between atoms: _224  and  _225
REMARK   82  A    between atoms: _230  and  _232
REMARK   83  A    between atoms: _232  and  _233
REMARK   84  A    between atoms: _232  and  _235
REMARK   85  A    between atoms: _238  and  _240
REMARK   86  A    between atoms: _240  and  _241
REMARK   87  A    between atoms: _240  and  _243
REMARK   88  A    between atoms: _243  and  _244
REMARK   89  A    between atoms: _247  and  _249
REMARK   90  A    between atoms: _249  and  _250
REMARK   91  A    between atoms: _249  and  _252
REMARK   92  A    between atoms: _255  and  _257
REMARK   93  A    between atoms: _257  and  _258
REMARK   94  A    between atoms: _257  and  _260
REMARK   95  A    between atoms: _260  and  _261
REMARK   96  A    between atoms: _264  and  _266
REMARK   97  A    between atoms: _266  and  _267
REMARK   98  A    between atoms: _270  and  _272
REMARK   99  A    between atoms: _272  and  _273
REMARK  100  A    between atoms: _272  and  _275
REMARK  101  A    between atoms: _275  and  _276
REMARK  102  A    between atoms: _279  and  _281
REMARK  103  A    between atoms: _281  and  _282
REMARK  104  A    between atoms: _281  and  _284
REMARK  105  A    between atoms: _284  and  _285
REMARK  106  A    between atoms: _288  and  _290
REMARK  107  A    between atoms: _290  and  _291
REMARK  108  A    between atoms: _290  and  _293
REMARK  109  A    between atoms: _293  and  _294
REMARK  110  A    between atoms: _294  and  _295
REMARK                            x       y       z     vdW  Elec       q    Type
REMARK                         _______ _______ _______ _____ _____    ______ ____
ROOT
ATOM      1  N   PRO A   1      27.399  -1.919   8.874  0.00  0.00    -0.212 NA
ATOM      2  CA  PRO A   1      26.243  -1.152   9.340  0.00  0.00    +0.137 C 
ATOM      3  CB  PRO A   1      26.888   0.032  10.095  0.00  0.00    +0.027 C 
ATOM      4  CG  PRO A   1      28.153   0.230   9.398  0.00  0.00    +0.021 C 
ATOM      5  CD  PRO A   1      28.643  -1.178   9.167  0.00  0.00    +0.089 C 
ENDROOT
BRANCH   2   6
ATOM      6  C   PRO A   1      25.345  -0.573   8.230  0.00  0.00    +0.224 C 
ATOM      7  O   PRO A   1      24.187  -0.223   8.547  0.00  0.00    -0.287 OA
ENDBRANCH   2   6
TORSDOF 1
REMARK  Name = ../refined-set-2016/3ovn/3ovn_pocket.pdb
REMARK  110 active torsions:
REMARK  status: ('A' for Active; 'I' for Inactive)
REMARK    1  A    between atoms: _1  and  _3
REMARK    2  A    between atoms: _3  and  _4
REMARK    3  A    between atoms: _3  and  _6
REMARK    4  A    between atoms: _6  and  _7
REMARK    5  A    between atoms: _12  and  _13
REMARK    6  A    between atoms: _15  and  _17
REMARK    7  A    between atoms: _17  and  _18
REMARK    8  A    between atoms: _17  and  _20
REMARK    9  A    between atoms: _20  and  _21
REMARK   10  A    between atoms: _24  and  _26
REMARK   11  A    between atoms: _26  and  _27
REMARK   12  A    between atoms: _26  and  _29
REMARK   13  A    between atoms: _29  and  _30
REMARK   14  A    between atoms: _40  and  _42
REMARK   15  A    between atoms: _42  and  _43
REMARK   16  A    between atoms: _42  and  _45
REMARK   17  A    between atoms: _45  and  _46
REMARK   18  A    between atoms: _52  and  _54
REMARK   19  A    between atoms: _54  and  _55
REMARK   20  A    between atoms: _54  and  _57
REMARK   21  A    between atoms: _57  and  _58
REMARK   22  A    between atoms: _63  and  _65
REMARK   23  A    between atoms: _65  and  _66
REMARK   24  A    between atoms: _65  and  _68
REMARK   25  A    between atoms: _68  and  _69
REMARK   26  A    between atoms: _74  and  _76
REMARK   27  A    between atoms: _76  and  _77
REMARK   28  A    between atoms: _76  and  _79
REMARK   29  A    between atoms: _79  and  _80
REMARK   30  A    between atoms: _80  and  _81
REMARK   31  A    between atoms: _81  and  _82
REMARK   32  A    between atoms: _91  and  _93
REMARK   33  A    between atoms: _93  and  _94
REMARK   34  A    between atoms: _93  and  _96
REMARK   35  A    between atoms: _96  and  _97
REMARK   36  A    between atoms: _99  and  _101
REMARK   37  A    between atoms: _101  and  _102
REMARK   38  A    between atoms: _105  and  _107
REMARK   39  A    between atoms: _107  and  _108
REMARK   40  A    between atoms: _110  and  _112
REMARK   41  A    between atoms: _112  and  _113
REMARK   42  A    between atoms: _112  and  _115
REMARK   43  A    between atoms: _115  and  _116
REMARK   44  A    between atoms: _116  and  _117
REMARK   45  A    between atoms: _120  and  _122
REMARK   46  A    between atoms: _122  and  _123
REMARK   47  A    between atoms: _122  and  _125
REMARK   48  A    between atoms: _125  and  _126
REMARK   49  A    between atoms: _126  and  _127
REMARK   50  A    between atoms: _127  and  _128
REMARK   51  A    between atoms: _137  and  _139
REMARK   52  A    between atoms: _139  and  _140
REMARK   53  A    between atoms: _139  and  _142
REMARK   54  A    between atoms: _142  and  _143
REMARK   55  A    between atoms: _146  and  _148
REMARK   56  A    between atoms: _148  and  _149
REMARK   57  A    between atoms: _148  and  _151
REMARK   58  A    between atoms: _154  and  _156
REMARK   59  A    between atoms: _156  and  _157
REMARK   60  A    between atoms: _156  and  _159
REMARK   61  A    between atoms: _159  and  _160
REMARK   62  A    between atoms: _164  and  _165
REMARK   63  A    between atoms: _170  and  _172
REMARK   64  A    between atoms: _172  and  _173
REMARK   65  A    between atoms: _172  and  _175
REMARK   66  A    between atoms: _175  and  _176
REMARK   67  A    between atoms: _179  and  _181
REMARK   68  A    between atoms: _181  and  _182
REMARK   69  A    between atoms: _185  and  _187
REMARK   70  A    between atoms: _187  and  _188
REMARK   71  A    between atoms: _190  and  _192
REMARK   72  A    between atoms: _192  and  _193
REMARK   73  A    between atoms: _192  and  _195
REMARK   74  A    between atoms: _195  and  _196
REMARK   75  A    between atoms: _196  and  _197
REMARK   76  A    between atoms: _197  and  _198
REMARK   77  A    between atoms: _207  and  _209
REMARK   78  A    between atoms: _209  and  _210
REMARK   79  A    between atoms: _209  and  _212
REMARK   80  A    between atoms: _212  and  _213
REMARK   81  A    between atoms: _224  and  _225
REMARK   82  A    between atoms: _230  and  _232
REMARK   83  A    between atoms: _232  and  _233
REMARK   84  A    between atoms: _232  and  _235
REMARK   85  A    between atoms: _238  and  _240
REMARK   86  A    between atoms: _240  and  _241
REMARK   87  A    between atoms: _240  and  _243
REMARK   88  A    between atoms: _243  and  _244
REMARK   89  A    between atoms: _247  and  _249
REMARK   90  A    between atoms: _249  and  _250
REMARK   91  A    between atoms: _249  and  _252
REMARK   92  A    between atoms: _255  and  _257
REMARK   93  A    between atoms: _257  and  _258
REMARK   94  A    between atoms: _257  and  _260
REMARK   95  A    between atoms: _260  and  _261
REMARK   96  A    between atoms: _264  and  _266
REMARK   97  A    between atoms: _266  and  _267
REMARK   98  A    between atoms: _270  and  _272
REMARK   99  A    between atoms: _272  and  _273
REMARK  100  A    between atoms: _272  and  _275
REMARK  101  A    between atoms: _275  and  _276
REMARK  102  A    between atoms: _279  and  _281
REMARK  103  A    between atoms: _281  and  _282
REMARK  104  A    between atoms: _281  and  _284
REMARK  105  A    between atoms: _284  and  _285
REMARK  106  A    between atoms: _288  and  _290
REMARK  107  A    between atoms: _290  and  _291
REMARK  108  A    between atoms: _290  and  _293
REMARK  109  A    between atoms: _293  and  _294
REMARK  110  A    between atoms: _294  and  _295
REMARK                            x       y       z     vdW  Elec       q    Type
REMARK                         _______ _______ _______ _____ _____    ______ ____
ROOT
ATOM      1  CA  ARG A   4      15.743   7.228   7.121  0.00  0.00    +0.149 C 
ENDROOT
BRANCH   1   4
ATOM      2  C   GLY A   3      16.422   8.874   5.396  0.00  0.00    +0.243 C 
ATOM      3  O   GLY A   3      16.647   9.716   6.209  0.00  0.00    -0.273 OA
ATOM      4  N   ARG A   4      16.113   7.624   5.752  0.00  0.00    -0.297 N 
ATOM      5  H   ARG A   4      16.135   6.887   5.019  0.00  0.00    +0.150 HD
BRANCH   2   6
ATOM      6  CA  GLY A   3      16.658   9.157   3.900  0.00  0.00    +0.176 C 
BRANCH   6   9
ATOM      7  C   ALA A   2      18.074   7.280   3.176  0.00  0.00    +0.241 C 
ATOM      8  O   ALA A   2      19.035   7.679   3.838  0.00  0.00    -0.273 OA
ATOM      9  N   GLY A   3      16.933   7.957   3.079  0.00  0.00    -0.295 N 
ATOM     10  H   GLY A   3      16.211   7.632   2.404  0.00  0.00    +0.150 HD
BRANCH   7  11
ATOM     11  CA  ALA A   2      18.187   5.959   2.370  0.00  0.00    +0.149 C 
ATOM     12  CB  ALA A   2      18.764   6.277   0.992  0.00  0.00    +0.031 C 
BRANCH  11  15
ATOM     13  C   LEU A   1      16.220   4.830   3.247  0.00  0.00    +0.238 C 
ATOM     14  O   LEU A   1      16.603   4.972   4.395  0.00  0.00    -0.274 OA
ATOM     15  N   ALA A   2      16.908   5.307   2.226  0.00  0.00    -0.297 N 
ATOM     16  H   ALA A   2      16.508   5.208   1.271  0.00  0.00    +0.150 HD
BRANCH  13  17
ATOM     17  CA  LEU A   1      14.908   4.026   2.948  0.00  0.00    +0.145 C 
BRANCH  17  18
ATOM     18  N   LEU A   1      13.977   4.746   2.117  0.00  0.00    -0.238 NA
ATOM     19  H   LEU A   1      13.588   4.267   1.280  0.00  0.00    +0.142 HD
ENDBRANCH  17  18
BRANCH  17  20
ATOM     20  CB  LEU A   1      15.185   2.677   2.308  0.00  0.00    +0.026 C 
BRANCH  20  21
ATOM     21  CG  LEU A   1      15.968   1.701   3.177  0.00  0.00    +0.002 C 
ATOM     22  CD2 LEU A   1      15.118   1.159   4.288  0.00  0.00    +0.000 C 
ATOM     23  CD1 LEU A   1      16.636   0.627   2.386  0.00  0.00    +0.000 C 
ENDBRANCH  20  21
ENDBRANCH  17  20
ENDBRANCH  13  17
ENDBRANCH  11  15
ENDBRANCH   7  11
ENDBRANCH   6   9
ENDBRANCH   2   6
ENDBRANCH   1   4
BRANCH   1  24
ATOM     24  C   ARG A   4      16.878   6.493   7.872  0.00  0.00    +0.241 C 
ATOM     25  O   ARG A   4      16.967   6.540   9.125  0.00  0.00    -0.273 OA
ATOM     26  N   TRP A   5      17.718   5.816   7.112  0.00  0.00    -0.297 N 
ATOM     27  H   TRP A   5      17.582   5.852   6.082  0.00  0.00    +0.150 HD
BRANCH  26  28
ATOM     28  CA  TRP A   5      18.800   5.038   7.618  0.00  0.00    +0.153 C 
BRANCH  28  29
ATOM     29  C   TRP A   5      20.057   5.224   6.728  0.00  0.00    +0.244 C 
ATOM     30  N   PRO A   6      21.264   4.966   7.255  0.00  0.00    -0.272 N 
ATOM     31  CD  PRO A   6      21.531   4.787   8.683  0.00  0.00    +0.094 C 
ATOM     32  CG  PRO A   6      23.017   4.768   8.769  0.00  0.00    +0.024 C 
ATOM     33  CB  PRO A   6      23.598   5.226   7.503  0.00  0.00    +0.031 C 
ATOM     34  CA  PRO A   6      22.484   5.178   6.467  0.00  0.00    +0.152 C 
ATOM     35  O   TRP A   5      19.935   5.568   5.591  0.00  0.00    -0.273 OA
BRANCH  34  36
ATOM     36  C   PRO A   6      22.683   4.004   5.562  0.00  0.00    +0.241 C 
ATOM     37  O   PRO A   6      23.163   2.967   6.020  0.00  0.00    -0.273 OA
ATOM     38  N   VAL A   7      22.254   4.141   4.328  0.00  0.00    -0.298 N 
ATOM     39  H   VAL A   7      21.907   5.065   4.001  0.00  0.00    +0.150 HD
BRANCH  38  40
ATOM     40  CA  VAL A   7      22.262   3.019   3.425  0.00  0.00    +0.137 C 
BRANCH  40  41
ATOM     41  CB  VAL A   7      20.974   2.902   2.573  0.00  0.00    +0.026 C 
ATOM     42  CG2 VAL A   7      19.766   2.683   3.431  0.00  0.00    +0.002 C 
ATOM     43  CG1 VAL A   7      21.141   1.787   1.563  0.00  0.00    +0.002 C 
ENDBRANCH  40  41
BRANCH  40  44
ATOM     44  C   VAL A   7      23.469   3.232   2.511  0.00  0.00    +0.227 C 
ATOM     45  O   VAL A   7      23.600   4.295   1.853  0.00  0.00    -0.286 OA
ENDBRANCH  40  44
ENDBRANCH  38  40
ENDBRANCH  34  36
ENDBRANCH  28  29
BRANCH  28  46
ATOM     46  CB  TRP A   5      18.400   3.556   7.667  0.00  0.00    +0.057 C 
BRANCH  46  47
ATOM     47  CG  TRP A   5      17.249   3.245   8.574  0.00  0.00    -0.002 A 
ATOM     48  CD2 TRP A   5      17.268   3.169  10.021  0.00  0.00    +0.013 A 
ATOM     49  CE3 TRP A   5      18.249   3.346  10.980  0.00  0.00    +0.001 A 
ATOM     50  CZ3 TRP A   5      17.918   3.200  12.334  0.00  0.00    +0.000 A 
ATOM     51  CH2 TRP A   5      16.631   2.880  12.715  0.00  0.00    +0.001 A 
ATOM     52  CZ2 TRP A   5      15.628   2.732  11.793  0.00  0.00    +0.017 A 
ATOM     53  CE2 TRP A   5      15.975   2.862  10.435  0.00  0.00    +0.056 A 
ATOM     54  NE1 TRP A   5      15.197   2.750   9.305  0.00  0.00    -0.352 N 
ATOM     55  HE1 TRP A   5      14.183   2.520   9.295  0.00  0.00    +0.166 HD
ATOM     56  CD1 TRP A   5      15.961   2.987   8.200  0.00  0.00    +0.068 A 
ENDBRANCH  46  47
ENDBRANCH  28  46
ENDBRANCH  26  28
ENDBRANCH   1  24
BRANCH   1  57
ATOM     57  CB  ARG A   4      14.551   6.276   7.051  0.00  0.00    +0.033 C 
BRANCH  57  58
ATOM     58  CG  ARG A   4      13.216   6.843   6.565  0.00  0.00    +0.045 C 
BRANCH  58  59
ATOM     59  CD  ARG A   4      12.158   5.673   6.729  0.00  0.00    +0.174 C 
BRANCH  59  60
ATOM     60  NE  ARG A   4      10.758   5.820   6.311  0.00  0.00    -0.265 N 
ATOM     61  HE  ARG A   4      10.123   5.032   6.551  0.00  0.00    +0.259 HD
ATOM     62  CZ  ARG A   4      10.206   6.840   5.663  0.00  0.00    +0.342 C 
ATOM     63  NH2 ARG A   4       8.904   6.792   5.368  0.00  0.00    -0.292 N 
ATOM     64 HH21 ARG A   4       8.338   5.965   5.645  0.00  0.00    +0.255 HD
ATOM     65 HH22 ARG A   4       8.456   7.582   4.861  0.00  0.00    +0.255 HD
ATOM     66  NH1 ARG A   4      10.902   7.904   5.318  0.00  0.00    -0.292 N 
ATOM     67 HH11 ARG A   4      11.914   7.962   5.552  0.00  0.00    +0.255 HD
ATOM     68 HH12 ARG A   4      10.440   8.686   4.811  0.00  0.00    +0.255 HD
ENDBRANCH  59  60
ENDBRANCH  58  59
ENDBRANCH  57  58
ENDBRANCH   1  57
TORSDOF 22
REMARK  Name = ../refined-set-2016/3ovn/3ovn_pocket.pdb
REMARK  110 active torsions:
REMARK  status: ('A' for Active; 'I' for Inactive)
REMARK    1  A    between atoms: _1  and  _3
REMARK    2  A    between atoms: _3  and  _4
REMARK    3  A    between atoms: _3  and  _6
REMARK    4  A    between atoms: _6  and  _7
REMARK    5  A    between atoms: _12  and  _13
REMARK    6  A    between atoms: _15  and  _17
REMARK    7  A    between atoms: _17  and  _18
REMARK    8  A    between atoms: _17  and  _20
REMARK    9  A    between atoms: _20  and  _21
REMARK   10  A    between atoms: _24  and  _26
REMARK   11  A    between atoms: _26  and  _27
REMARK   12  A    between atoms: _26  and  _29
REMARK   13  A    between atoms: _29  and  _30
REMARK   14  A    between atoms: _40  and  _42
REMARK   15  A    between atoms: _42  and  _43
REMARK   16  A    between atoms: _42  and  _45
REMARK   17  A    between atoms: _45  and  _46
REMARK   18  A    between atoms: _52  and  _54
REMARK   19  A    between atoms: _54  and  _55
REMARK   20  A    between atoms: _54  and  _57
REMARK   21  A    between atoms: _57  and  _58
REMARK   22  A    between atoms: _63  and  _65
REMARK   23  A    between atoms: _65  and  _66
REMARK   24  A    between atoms: _65  and  _68
REMARK   25  A    between atoms: _68  and  _69
REMARK   26  A    between atoms: _74  and  _76
REMARK   27  A    between atoms: _76  and  _77
REMARK   28  A    between atoms: _76  and  _79
REMARK   29  A    between atoms: _79  and  _80
REMARK   30  A    between atoms: _80  and  _81
REMARK   31  A    between atoms: _81  and  _82
REMARK   32  A    between atoms: _91  and  _93
REMARK   33  A    between atoms: _93  and  _94
REMARK   34  A    between atoms: _93  and  _96
REMARK   35  A    between atoms: _96  and  _97
REMARK   36  A    between atoms: _99  and  _101
REMARK   37  A    between atoms: _101  and  _102
REMARK   38  A    between atoms: _105  and  _107
REMARK   39  A    between atoms: _107  and  _108
REMARK   40  A    between atoms: _110  and  _112
REMARK   41  A    between atoms: _112  and  _113
REMARK   42  A    between atoms: _112  and  _115
REMARK   43  A    between atoms: _115  and  _116
REMARK   44  A    between atoms: _116  and  _117
REMARK   45  A    between atoms: _120  and  _122
REMARK   46  A    between atoms: _122  and  _123
REMARK   47  A    between atoms: _122  and  _125
REMARK   48  A    between atoms: _125  and  _126
REMARK   49  A    between atoms: _126  and  _127
REMARK   50  A    between atoms: _127  and  _128
REMARK   51  A    between atoms: _137  and  _139
REMARK   52  A    between atoms: _139  and  _140
REMARK   53  A    between atoms: _139  and  _142
REMARK   54  A    between atoms: _142  and  _143
REMARK   55  A    between atoms: _146  and  _148
REMARK   56  A    between atoms: _148  and  _149
REMARK   57  A    between atoms: _148  and  _151
REMARK   58  A    between atoms: _154  and  _156
REMARK   59  A    between atoms: _156  and  _157
REMARK   60  A    between atoms: _156  and  _159
REMARK   61  A    between atoms: _159  and  _160
REMARK   62  A    between atoms: _164  and  _165
REMARK   63  A    between atoms: _170  and  _172
REMARK   64  A    between atoms: _172  and  _173
REMARK   65  A    between atoms: _172  and  _175
REMARK   66  A    between atoms: _175  and  _176
REMARK   67  A    between atoms: _179  and  _181
REMARK   68  A    between atoms: _181  and  _182
REMARK   69  A    between atoms: _185  and  _187
REMARK   70  A    between atoms: _187  and  _188
REMARK   71  A    between atoms: _190  and  _192
REMARK   72  A    between atoms: _192  and  _193
REMARK   73  A    between atoms: _192  and  _195
REMARK   74  A    between atoms: _195  and  _196
REMARK   75  A    between atoms: _196  and  _197
REMARK   76  A    between atoms: _197  and  _198
REMARK   77  A    between atoms: _207  and  _209
REMARK   78  A    between atoms: _209  and  _210
REMARK   79  A    between atoms: _209  and  _212
REMARK   80  A    between atoms: _212  and  _213
REMARK   81  A    between atoms: _224  and  _225
REMARK   82  A    between atoms: _230  and  _232
REMARK   83  A    between atoms: _232  and  _233
REMARK   84  A    between atoms: _232  and  _235
REMARK   85  A    between atoms: _238  and  _240
REMARK   86  A    between atoms: _240  and  _241
REMARK   87  A    between atoms: _240  and  _243
REMARK   88  A    between atoms: _243  and  _244
REMARK   89  A    between atoms: _247  and  _249
REMARK   90  A    between atoms: _249  and  _250
REMARK   91  A    between atoms: _249  and  _252
REMARK   92  A    between atoms: _255  and  _257
REMARK   93  A    between atoms: _257  and  _258
REMARK   94  A    between atoms: _257  and  _260
REMARK   95  A    between atoms: _260  and  _261
REMARK   96  A    between atoms: _264  and  _266
REMARK   97  A    between atoms: _266  and  _267
REMARK   98  A    between atoms: _270  and  _272
REMARK   99  A    between atoms: _272  and  _273
REMARK  100  A    between atoms: _272  and  _275
REMARK  101  A    between atoms: _275  and  _276
REMARK  102  A    between atoms: _279  and  _281
REMARK  103  A    between atoms: _281  and  _282
REMARK  104  A    between atoms: _281  and  _284
REMARK  105  A    between atoms: _284  and  _285
REMARK  106  A    between atoms: _288  and  _290
REMARK  107  A    between atoms: _290  and  _291
REMARK  108  A    between atoms: _290  and  _293
REMARK  109  A    between atoms: _293  and  _294
REMARK  110  A    between atoms: _294  and  _295
REMARK                            x       y       z     vdW  Elec       q    Type
REMARK                         _______ _______ _______ _____ _____    ______ ____
ROOT
ATOM      1  C   ILE A   1      20.358  -0.303  15.079  0.00  0.00    +0.238 C 
ATOM      2  N   VAL A   2      19.619   0.220  16.041  0.00  0.00    -0.298 N 
ATOM      3  H   VAL A   2      18.787  -0.285  16.407  0.00  0.00    +0.150 HD
ATOM      4  O   ILE A   1      21.434   0.222  14.699  0.00  0.00    -0.274 OA
ENDROOT
BRANCH   1   5
ATOM      5  CA  ILE A   1      19.861  -1.589  14.431  0.00  0.00    +0.145 C 
BRANCH   5   6
ATOM      6  N   ILE A   1      19.413  -2.512  15.455  0.00  0.00    -0.238 NA
ATOM      7  H   ILE A   1      18.415  -2.802  15.496  0.00  0.00    +0.142 HD
ENDBRANCH   5   6
BRANCH   5   8
ATOM      8  CB  ILE A   1      18.795  -1.338  13.276  0.00  0.00    +0.025 C 
ATOM      9  CG2 ILE A   1      17.491  -0.671  13.770  0.00  0.00    +0.002 C 
BRANCH   8  10
ATOM     10  CG1 ILE A   1      19.421  -0.519  12.162  0.00  0.00    +0.002 C 
ATOM     11  CD1 ILE A   1      18.514  -0.341  10.917  0.00  0.00    +0.000 C 
ENDBRANCH   8  10
ENDBRANCH   5   8
ENDBRANCH   1   5
BRANCH   2  12
ATOM     12  CA  VAL A   2      20.002   1.534  16.582  0.00  0.00    +0.137 C 
BRANCH  12  13
ATOM     13  CB  VAL A   2      18.875   2.263  17.425  0.00  0.00    +0.026 C 
ATOM     14  CG2 VAL A   2      18.442   1.365  18.609  0.00  0.00    +0.002 C 
ATOM     15  CG1 VAL A   2      17.678   2.575  16.560  0.00  0.00    +0.002 C 
ENDBRANCH  12  13
BRANCH  12  16
ATOM     16  C   VAL A   2      21.285   1.409  17.404  0.00  0.00    +0.227 C 
ATOM     17  O   VAL A   2      22.151   2.259  17.323  0.00  0.00    -0.286 OA
ENDBRANCH  12  16
ENDBRANCH   2  12
TORSDOF 7
REMARK  Name = ../refined-set-2016/3ovn/3ovn_pocket.pdb
REMARK  110 active torsions:
REMARK  status: ('A' for Active; 'I' for Inactive)
REMARK    1  A    between atoms: _1  and  _3
REMARK    2  A    between atoms: _3  and  _4
REMARK    3  A    between atoms: _3  and  _6
REMARK    4  A    between atoms: _6  and  _7
REMARK    5  A    between atoms: _12  and  _13
REMARK    6  A    between atoms: _15  and  _17
REMARK    7  A    between atoms: _17  and  _18
REMARK    8  A    between atoms: _17  and  _20
REMARK    9  A    between atoms: _20  and  _21
REMARK   10  A    between atoms: _24  and  _26
REMARK   11  A    between atoms: _26  and  _27
REMARK   12  A    between atoms: _26  and  _29
REMARK   13  A    between atoms: _29  and  _30
REMARK   14  A    between atoms: _40  and  _42
REMARK   15  A    between atoms: _42  and  _43
REMARK   16  A    between atoms: _42  and  _45
REMARK   17  A    between atoms: _45  and  _46
REMARK   18  A    between atoms: _52  and  _54
REMARK   19  A    between atoms: _54  and  _55
REMARK   20  A    between atoms: _54  and  _57
REMARK   21  A    between atoms: _57  and  _58
REMARK   22  A    between atoms: _63  and  _65
REMARK   23  A    between atoms: _65  and  _66
REMARK   24  A    between atoms: _65  and  _68
REMARK   25  A    between atoms: _68  and  _69
REMARK   26  A    between atoms: _74  and  _76
REMARK   27  A    between atoms: _76  and  _77
REMARK   28  A    between atoms: _76  and  _79
REMARK   29  A    between atoms: _79  and  _80
REMARK   30  A    between atoms: _80  and  _81
REMARK   31  A    between atoms: _81  and  _82
REMARK   32  A    between atoms: _91  and  _93
REMARK   33  A    between atoms: _93  and  _94
REMARK   34  A    between atoms: _93  and  _96
REMARK   35  A    between atoms: _96  and  _97
REMARK   36  A    between atoms: _99  and  _101
REMARK   37  A    between atoms: _101  and  _102
REMARK   38  A    between atoms: _105  and  _107
REMARK   39  A    between atoms: _107  and  _108
REMARK   40  A    between atoms: _110  and  _112
REMARK   41  A    between atoms: _112  and  _113
REMARK   42  A    between atoms: _112  and  _115
REMARK   43  A    between atoms: _115  and  _116
REMARK   44  A    between atoms: _116  and  _117
REMARK   45  A    between atoms: _120  and  _122
REMARK   46  A    between atoms: _122  and  _123
REMARK   47  A    between atoms: _122  and  _125
REMARK   48  A    between atoms: _125  and  _126
REMARK   49  A    between atoms: _126  and  _127
REMARK   50  A    between atoms: _127  and  _128
REMARK   51  A    between atoms: _137  and  _139
REMARK   52  A    between atoms: _139  and  _140
REMARK   53  A    between atoms: _139  and  _142
REMARK   54  A    between atoms: _142  and  _143
REMARK   55  A    between atoms: _146  and  _148
REMARK   56  A    between atoms: _148  and  _149
REMARK   57  A    between atoms: _148  and  _151
REMARK   58  A    between atoms: _154  and  _156
REMARK   59  A    between atoms: _156  and  _157
REMARK   60  A    between atoms: _156  and  _159
REMARK   61  A    between atoms: _159  and  _160
REMARK   62  A    between atoms: _164  and  _165
REMARK   63  A    between atoms: _170  and  _172
REMARK   64  A    between atoms: _172  and  _173
REMARK   65  A    between atoms: _172  and  _175
REMARK   66  A    between atoms: _175  and  _176
REMARK   67  A    between atoms: _179  and  _181
REMARK   68  A    between atoms: _181  and  _182
REMARK   69  A    between atoms: _185  and  _187
REMARK   70  A    between atoms: _187  and  _188
REMARK   71  A    between atoms: _190  and  _192
REMARK   72  A    between atoms: _192  and  _193
REMARK   73  A    between atoms: _192  and  _195
REMARK   74  A    between atoms: _195  and  _196
REMARK   75  A    between atoms: _196  and  _197
REMARK   76  A    between atoms: _197  and  _198
REMARK   77  A    between atoms: _207  and  _209
REMARK   78  A    between atoms: _209  and  _210
REMARK   79  A    between atoms: _209  and  _212
REMARK   80  A    between atoms: _212  and  _213
REMARK   81  A    between atoms: _224  and  _225
REMARK   82  A    between atoms: _230  and  _232
REMARK   83  A    between atoms: _232  and  _233
REMARK   84  A    between atoms: _232  and  _235
REMARK   85  A    between atoms: _238  and  _240
REMARK   86  A    between atoms: _240  and  _241
REMARK   87  A    between atoms: _240  and  _243
REMARK   88  A    between atoms: _243  and  _244
REMARK   89  A    between atoms: _247  and  _249
REMARK   90  A    between atoms: _249  and  _250
REMARK   91  A    between atoms: _249  and  _252
REMARK   92  A    between atoms: _255  and  _257
REMARK   93  A    between atoms: _257  and  _258
REMARK   94  A    between atoms: _257  and  _260
REMARK   95  A    between atoms: _260  and  _261
REMARK   96  A    between atoms: _264  and  _266
REMARK   97  A    between atoms: _266  and  _267
REMARK   98  A    between atoms: _270  and  _272
REMARK   99  A    between atoms: _272  and  _273
REMARK  100  A    between atoms: _272  and  _275
REMARK  101  A    between atoms: _275  and  _276
REMARK  102  A    between atoms: _279  and  _281
REMARK  103  A    between atoms: _281  and  _282
REMARK  104  A    between atoms: _281  and  _284
REMARK  105  A    between atoms: _284  and  _285
REMARK  106  A    between atoms: _288  and  _290
REMARK  107  A    between atoms: _290  and  _291
REMARK  108  A    between atoms: _290  and  _293
REMARK  109  A    between atoms: _293  and  _294
REMARK  110  A    between atoms: _294  and  _295
REMARK                            x       y       z     vdW  Elec       q    Type
REMARK                         _______ _______ _______ _____ _____    ______ ____
ROOT
ATOM      1  C   ILE A   1      25.075   3.508  15.216  0.00  0.00    +0.238 C 
ATOM      2  N   ALA A   2      24.511   3.546  16.428  0.00  0.00    -0.298 N 
ATOM      3  H   ALA A   2      23.711   2.914  16.634  0.00  0.00    +0.150 HD
ATOM      4  O   ILE A   1      25.976   4.278  14.878  0.00  0.00    -0.274 OA
ENDROOT
BRANCH   2   5
ATOM      5  CA  ALA A   2      24.985   4.444  17.461  0.00  0.00    +0.137 C 
ATOM      6  CB  ALA A   2      24.034   4.393  18.712  0.00  0.00    +0.030 C 
BRANCH   5   7
ATOM      7  C   ALA A   2      26.426   4.136  17.850  0.00  0.00    +0.227 C 
ATOM      8  O   ALA A   2      27.234   5.034  18.005  0.00  0.00    -0.286 OA
ENDBRANCH   5   7
ENDBRANCH   2   5
BRANCH   1   9
ATOM      9  CA  ILE A   1      24.522   2.488  14.217  0.00  0.00    +0.145 C 
BRANCH   9  10
ATOM     10  N   ILE A   1      24.252   1.206  14.831  0.00  0.00    -0.238 NA
ATOM     11  H   ILE A   1      23.266   0.888  14.920  0.00  0.00    +0.142 HD
ENDBRANCH   9  10
BRANCH   9  12
ATOM     12  CB  ILE A   1      23.275   3.009  13.486  0.00  0.00    +0.025 C 
ATOM     13  CG2 ILE A   1      23.493   4.418  12.967  0.00  0.00    +0.002 C 
BRANCH  12  14
ATOM     14  CG1 ILE A   1      22.899   1.981  12.391  0.00  0.00    +0.002 C 
ATOM     15  CD1 ILE A   1      21.624   2.329  11.734  0.00  0.00    +0.000 C 
ENDBRANCH  12  14
ENDBRANCH   9  12
ENDBRANCH   1   9
TORSDOF 6
REMARK  Name = ../refined-set-2016/3ovn/3ovn_pocket.pdb
REMARK  110 active torsions:
REMARK  status: ('A' for Active; 'I' for Inactive)
REMARK    1  A    between atoms: _1  and  _3
REMARK    2  A    between atoms: _3  and  _4
REMARK    3  A    between atoms: _3  and  _6
REMARK    4  A    between atoms: _6  and  _7
REMARK    5  A    between atoms: _12  and  _13
REMARK    6  A    between atoms: _15  and  _17
REMARK    7  A    between atoms: _17  and  _18
REMARK    8  A    between atoms: _17  and  _20
REMARK    9  A    between atoms: _20  and  _21
REMARK   10  A    between atoms: _24  and  _26
REMARK   11  A    between atoms: _26  and  _27
REMARK   12  A    between atoms: _26  and  _29
REMARK   13  A    between atoms: _29  and  _30
REMARK   14  A    between atoms: _40  and  _42
REMARK   15  A    between atoms: _42  and  _43
REMARK   16  A    between atoms: _42  and  _45
REMARK   17  A    between atoms: _45  and  _46
REMARK   18  A    between atoms: _52  and  _54
REMARK   19  A    between atoms: _54  and  _55
REMARK   20  A    between atoms: _54  and  _57
REMARK   21  A    between atoms: _57  and  _58
REMARK   22  A    between atoms: _63  and  _65
REMARK   23  A    between atoms: _65  and  _66
REMARK   24  A    between atoms: _65  and  _68
REMARK   25  A    between atoms: _68  and  _69
REMARK   26  A    between atoms: _74  and  _76
REMARK   27  A    between atoms: _76  and  _77
REMARK   28  A    between atoms: _76  and  _79
REMARK   29  A    between atoms: _79  and  _80
REMARK   30  A    between atoms: _80  and  _81
REMARK   31  A    between atoms: _81  and  _82
REMARK   32  A    between atoms: _91  and  _93
REMARK   33  A    between atoms: _93  and  _94
REMARK   34  A    between atoms: _93  and  _96
REMARK   35  A    between atoms: _96  and  _97
REMARK   36  A    between atoms: _99  and  _101
REMARK   37  A    between atoms: _101  and  _102
REMARK   38  A    between atoms: _105  and  _107
REMARK   39  A    between atoms: _107  and  _108
REMARK   40  A    between atoms: _110  and  _112
REMARK   41  A    between atoms: _112  and  _113
REMARK   42  A    between atoms: _112  and  _115
REMARK   43  A    between atoms: _115  and  _116
REMARK   44  A    between atoms: _116  and  _117
REMARK   45  A    between atoms: _120  and  _122
REMARK   46  A    between atoms: _122  and  _123
REMARK   47  A    between atoms: _122  and  _125
REMARK   48  A    between atoms: _125  and  _126
REMARK   49  A    between atoms: _126  and  _127
REMARK   50  A    between atoms: _127  and  _128
REMARK   51  A    between atoms: _137  and  _139
REMARK   52  A    between atoms: _139  and  _140
REMARK   53  A    between atoms: _139  and  _142
REMARK   54  A    between atoms: _142  and  _143
REMARK   55  A    between atoms: _146  and  _148
REMARK   56  A    between atoms: _148  and  _149
REMARK   57  A    between atoms: _148  and  _151
REMARK   58  A    between atoms: _154  and  _156
REMARK   59  A    between atoms: _156  and  _157
REMARK   60  A    between atoms: _156  and  _159
REMARK   61  A    between atoms: _159  and  _160
REMARK   62  A    between atoms: _164  and  _165
REMARK   63  A    between atoms: _170  and  _172
REMARK   64  A    between atoms: _172  and  _173
REMARK   65  A    between atoms: _172  and  _175
REMARK   66  A    between atoms: _175  and  _176
REMARK   67  A    between atoms: _179  and  _181
REMARK   68  A    between atoms: _181  and  _182
REMARK   69  A    between atoms: _185  and  _187
REMARK   70  A    between atoms: _187  and  _188
REMARK   71  A    between atoms: _190  and  _192
REMARK   72  A    between atoms: _192  and  _193
REMARK   73  A    between atoms: _192  and  _195
REMARK   74  A    between atoms: _195  and  _196
REMARK   75  A    between atoms: _196  and  _197
REMARK   76  A    between atoms: _197  and  _198
REMARK   77  A    between atoms: _207  and  _209
REMARK   78  A    between atoms: _209  and  _210
REMARK   79  A    between atoms: _209  and  _212
REMARK   80  A    between atoms: _212  and  _213
REMARK   81  A    between atoms: _224  and  _225
REMARK   82  A    between atoms: _230  and  _232
REMARK   83  A    between atoms: _232  and  _233
REMARK   84  A    between atoms: _232  and  _235
REMARK   85  A    between atoms: _238  and  _240
REMARK   86  A    between atoms: _240  and  _241
REMARK   87  A    between atoms: _240  and  _243
REMARK   88  A    between atoms: _243  and  _244
REMARK   89  A    between atoms: _247  and  _249
REMARK   90  A    between atoms: _249  and  _250
REMARK   91  A    between atoms: _249  and  _252
REMARK   92  A    between atoms: _255  and  _257
REMARK   93  A    between atoms: _257  and  _258
REMARK   94  A    between atoms: _257  and  _260
REMARK   95  A    between atoms: _260  and  _261
REMARK   96  A    between atoms: _264  and  _266
REMARK   97  A    between atoms: _266  and  _267
REMARK   98  A    between atoms: _270  and  _272
REMARK   99  A    between atoms: _272  and  _273
REMARK  100  A    between atoms: _272  and  _275
REMARK  101  A    between atoms: _275  and  _276
REMARK  102  A    between atoms: _279  and  _281
REMARK  103  A    between atoms: _281  and  _282
REMARK  104  A    between atoms: _281  and  _284
REMARK  105  A    between atoms: _284  and  _285
REMARK  106  A    between atoms: _288  and  _290
REMARK  107  A    between atoms: _290  and  _291
REMARK  108  A    between atoms: _290  and  _293
REMARK  109  A    between atoms: _293  and  _294
REMARK  110  A    between atoms: _294  and  _295
REMARK                            x       y       z     vdW  Elec       q    Type
REMARK                         _______ _______ _______ _____ _____    ______ ____
ROOT
ATOM      1  CA  ILE A   2      29.033   6.942  15.298  0.00  0.00    +0.148 C 
ENDROOT
BRANCH   1   3
ATOM      2  C   ASP A   1      29.743   4.694  14.720  0.00  0.00    +0.239 C 
ATOM      3  N   ILE A   2      28.915   5.496  15.383  0.00  0.00    -0.297 N 
ATOM      4  H   ILE A   2      28.168   5.080  15.975  0.00  0.00    +0.150 HD
ATOM      5  O   ASP A   1      30.680   5.130  14.046  0.00  0.00    -0.274 OA
BRANCH   2   6
ATOM      6  CA  ASP A   1      29.494   3.181  14.824  0.00  0.00    +0.156 C 
BRANCH   6   7
ATOM      7  N   ASP A   1      28.660   2.819  15.960  0.00  0.00    -0.238 NA
ATOM      8  H   ASP A   1      27.678   2.531  15.777  0.00  0.00    +0.142 HD
ENDBRANCH   6   7
BRANCH   6   9
ATOM      9  CB  ASP A   1      28.799   2.672  13.569  0.00  0.00    +0.140 C 
BRANCH   9  10
ATOM     10  CG  ASP A   1      29.654   2.754  12.328  0.00  0.00    +0.367 C 
ATOM     11  OD2 ASP A   1      30.709   2.093  12.286  0.00  0.00    -0.246 OA
ATOM     12  OD1 ASP A   1      29.233   3.450  11.373  0.00  0.00    -0.246 OA
ENDBRANCH   9  10
ENDBRANCH   6   9
ENDBRANCH   2   6
ENDBRANCH   1   3
BRANCH   1  13
ATOM     13  C   ILE A   2      30.235   7.443  16.151  0.00  0.00    +0.241 C 
ATOM     14  N   GLN A   3      31.017   6.521  16.722  0.00  0.00    -0.298 N 
ATOM     15  H   GLN A   3      30.624   5.580  16.924  0.00  0.00    +0.150 HD
ATOM     16  O   ILE A   2      30.446   8.642  16.277  0.00  0.00    -0.273 OA
BRANCH  14  17
ATOM     17  CA  GLN A   3      32.437   6.804  17.078  0.00  0.00    +0.137 C 
BRANCH  17  18
ATOM     18  C   GLN A   3      33.390   5.919  16.267  0.00  0.00    +0.227 C 
ATOM     19  O   GLN A   3      33.345   4.695  16.380  0.00  0.00    -0.286 OA
ENDBRANCH  17  18
BRANCH  17  20
ATOM     20  CB  GLN A   3      32.706   6.618  18.576  0.00  0.00    +0.037 C 
BRANCH  20  21
ATOM     21  CG  GLN A   3      31.847   7.498  19.475  0.00  0.00    +0.087 C 
BRANCH  21  22
ATOM     22  CD  GLN A   3      30.507   6.843  19.802  0.00  0.00    +0.219 C 
ATOM     23  OE1 GLN A   3      30.439   5.927  20.627  0.00  0.00    -0.275 OA
ATOM     24  NE2 GLN A   3      29.440   7.302  19.147  0.00  0.00    -0.329 N 
ATOM     25 HE21 GLN A   3      28.503   6.886  19.323  0.00  0.00    +0.145 HD
ATOM     26 HE22 GLN A   3      29.545   8.076  18.460  0.00  0.00    +0.145 HD
ENDBRANCH  21  22
ENDBRANCH  20  21
ENDBRANCH  17  20
ENDBRANCH  14  17
ENDBRANCH   1  13
BRANCH   1  27
ATOM     27  CB  ILE A   2      27.669   7.651  15.636  0.00  0.00    +0.027 C 
ATOM     28  CG2 ILE A   2      27.855   9.119  15.949  0.00  0.00    +0.002 C 
BRANCH  27  29
ATOM     29  CG1 ILE A   2      26.715   7.516  14.448  0.00  0.00    +0.002 C 
ATOM     30  CD1 ILE A   2      25.247   7.446  14.821  0.00  0.00    +0.000 C 
ENDBRANCH  27  29
ENDBRANCH   1  27
TORSDOF 13
REMARK  Name = ../refined-set-2016/3ovn/3ovn_pocket.pdb
REMARK  110 active torsions:
REMARK  status: ('A' for Active; 'I' for Inactive)
REMARK    1  A    between atoms: _1  and  _3
REMARK    2  A    between atoms: _3  and  _4
REMARK    3  A    between atoms: _3  and  _6
REMARK    4  A    between atoms: _6  and  _7
REMARK    5  A    between atoms: _12  and  _13
REMARK    6  A    between atoms: _15  and  _17
REMARK    7  A    between atoms: _17  and  _18
REMARK    8  A    between atoms: _17  and  _20
REMARK    9  A    between atoms: _20  and  _21
REMARK   10  A    between atoms: _24  and  _26
REMARK   11  A    between atoms: _26  and  _27
REMARK   12  A    between atoms: _26  and  _29
REMARK   13  A    between atoms: _29  and  _30
REMARK   14  A    between atoms: _40  and  _42
REMARK   15  A    between atoms: _42  and  _43
REMARK   16  A    between atoms: _42  and  _45
REMARK   17  A    between atoms: _45  and  _46
REMARK   18  A    between atoms: _52  and  _54
REMARK   19  A    between atoms: _54  and  _55
REMARK   20  A    between atoms: _54  and  _57
REMARK   21  A    between atoms: _57  and  _58
REMARK   22  A    between atoms: _63  and  _65
REMARK   23  A    between atoms: _65  and  _66
REMARK   24  A    between atoms: _65  and  _68
REMARK   25  A    between atoms: _68  and  _69
REMARK   26  A    between atoms: _74  and  _76
REMARK   27  A    between atoms: _76  and  _77
REMARK   28  A    between atoms: _76  and  _79
REMARK   29  A    between atoms: _79  and  _80
REMARK   30  A    between atoms: _80  and  _81
REMARK   31  A    between atoms: _81  and  _82
REMARK   32  A    between atoms: _91  and  _93
REMARK   33  A    between atoms: _93  and  _94
REMARK   34  A    between atoms: _93  and  _96
REMARK   35  A    between atoms: _96  and  _97
REMARK   36  A    between atoms: _99  and  _101
REMARK   37  A    between atoms: _101  and  _102
REMARK   38  A    between atoms: _105  and  _107
REMARK   39  A    between atoms: _107  and  _108
REMARK   40  A    between atoms: _110  and  _112
REMARK   41  A    between atoms: _112  and  _113
REMARK   42  A    between atoms: _112  and  _115
REMARK   43  A    between atoms: _115  and  _116
REMARK   44  A    between atoms: _116  and  _117
REMARK   45  A    between atoms: _120  and  _122
REMARK   46  A    between atoms: _122  and  _123
REMARK   47  A    between atoms: _122  and  _125
REMARK   48  A    between atoms: _125  and  _126
REMARK   49  A    between atoms: _126  and  _127
REMARK   50  A    between atoms: _127  and  _128
REMARK   51  A    between atoms: _137  and  _139
REMARK   52  A    between atoms: _139  and  _140
REMARK   53  A    between atoms: _139  and  _142
REMARK   54  A    between atoms: _142  and  _143
REMARK   55  A    between atoms: _146  and  _148
REMARK   56  A    between atoms: _148  and  _149
REMARK   57  A    between atoms: _148  and  _151
REMARK   58  A    between atoms: _154  and  _156
REMARK   59  A    between atoms: _156  and  _157
REMARK   60  A    between atoms: _156  and  _159
REMARK   61  A    between atoms: _159  and  _160
REMARK   62  A    between atoms: _164  and  _165
REMARK   63  A    between atoms: _170  and  _172
REMARK   64  A    between atoms: _172  and  _173
REMARK   65  A    between atoms: _172  and  _175
REMARK   66  A    between atoms: _175  and  _176
REMARK   67  A    between atoms: _179  and  _181
REMARK   68  A    between atoms: _181  and  _182
REMARK   69  A    between atoms: _185  and  _187
REMARK   70  A    between atoms: _187  and  _188
REMARK   71  A    between atoms: _190  and  _192
REMARK   72  A    between atoms: _192  and  _193
REMARK   73  A    between atoms: _192  and  _195
REMARK   74  A    between atoms: _195  and  _196
REMARK   75  A    between atoms: _196  and  _197
REMARK   76  A    between atoms: _197  and  _198
REMARK   77  A    between atoms: _207  and  _209
REMARK   78  A    between atoms: _209  and  _210
REMARK   79  A    between atoms: _209  and  _212
REMARK   80  A    between atoms: _212  and  _213
REMARK   81  A    between atoms: _224  and  _225
REMARK   82  A    between atoms: _230  and  _232
REMARK   83  A    between atoms: _232  and  _233
REMARK   84  A    between atoms: _232  and  _235
REMARK   85  A    between atoms: _238  and  _240
REMARK   86  A    between atoms: _240  and  _241
REMARK   87  A    between atoms: _240  and  _243
REMARK   88  A    between atoms: _243  and  _244
REMARK   89  A    between atoms: _247  and  _249
REMARK   90  A    between atoms: _249  and  _250
REMARK   91  A    between atoms: _249  and  _252
REMARK   92  A    between atoms: _255  and  _257
REMARK   93  A    between atoms: _257  and  _258
REMARK   94  A    between atoms: _257  and  _260
REMARK   95  A    between atoms: _260  and  _261
REMARK   96  A    between atoms: _264  and  _266
REMARK   97  A    between atoms: _266  and  _267
REMARK   98  A    between atoms: _270  and  _272
REMARK   99  A    between atoms: _272  and  _273
REMARK  100  A    between atoms: _272  and  _275
REMARK  101  A    between atoms: _275  and  _276
REMARK  102  A    between atoms: _279  and  _281
REMARK  103  A    between atoms: _281  and  _282
REMARK  104  A    between atoms: _281  and  _284
REMARK  105  A    between atoms: _284  and  _285
REMARK  106  A    between atoms: _288  and  _290
REMARK  107  A    between atoms: _290  and  _291
REMARK  108  A    between atoms: _290  and  _293
REMARK  109  A    between atoms: _293  and  _294
REMARK  110  A    between atoms: _294  and  _295
REMARK                            x       y       z     vdW  Elec       q    Type
REMARK                         _______ _______ _______ _____ _____    ______ ____
ROOT
ATOM      1  O   HOH     1      23.418  11.515   8.832  0.00  0.00    +0.000 OA
ENDROOT
TORSDOF 0
REMARK  Name = ../refined-set-2016/3ovn/3ovn_pocket.pdb
REMARK  110 active torsions:
REMARK  status: ('A' for Active; 'I' for Inactive)
REMARK    1  A    between atoms: _1  and  _3
REMARK    2  A    between atoms: _3  and  _4
REMARK    3  A    between atoms: _3  and  _6
REMARK    4  A    between atoms: _6  and  _7
REMARK    5  A    between atoms: _12  and  _13
REMARK    6  A    between atoms: _15  and  _17
REMARK    7  A    between atoms: _17  and  _18
REMARK    8  A    between atoms: _17  and  _20
REMARK    9  A    between atoms: _20  and  _21
REMARK   10  A    between atoms: _24  and  _26
REMARK   11  A    between atoms: _26  and  _27
REMARK   12  A    between atoms: _26  and  _29
REMARK   13  A    between atoms: _29  and  _30
REMARK   14  A    between atoms: _40  and  _42
REMARK   15  A    between atoms: _42  and  _43
REMARK   16  A    between atoms: _42  and  _45
REMARK   17  A    between atoms: _45  and  _46
REMARK   18  A    between atoms: _52  and  _54
REMARK   19  A    between atoms: _54  and  _55
REMARK   20  A    between atoms: _54  and  _57
REMARK   21  A    between atoms: _57  and  _58
REMARK   22  A    between atoms: _63  and  _65
REMARK   23  A    between atoms: _65  and  _66
REMARK   24  A    between atoms: _65  and  _68
REMARK   25  A    between atoms: _68  and  _69
REMARK   26  A    between atoms: _74  and  _76
REMARK   27  A    between atoms: _76  and  _77
REMARK   28  A    between atoms: _76  and  _79
REMARK   29  A    between atoms: _79  and  _80
REMARK   30  A    between atoms: _80  and  _81
REMARK   31  A    between atoms: _81  and  _82
REMARK   32  A    between atoms: _91  and  _93
REMARK   33  A    between atoms: _93  and  _94
REMARK   34  A    between atoms: _93  and  _96
REMARK   35  A    between atoms: _96  and  _97
REMARK   36  A    between atoms: _99  and  _101
REMARK   37  A    between atoms: _101  and  _102
REMARK   38  A    between atoms: _105  and  _107
REMARK   39  A    between atoms: _107  and  _108
REMARK   40  A    between atoms: _110  and  _112
REMARK   41  A    between atoms: _112  and  _113
REMARK   42  A    between atoms: _112  and  _115
REMARK   43  A    between atoms: _115  and  _116
REMARK   44  A    between atoms: _116  and  _117
REMARK   45  A    between atoms: _120  and  _122
REMARK   46  A    between atoms: _122  and  _123
REMARK   47  A    between atoms: _122  and  _125
REMARK   48  A    between atoms: _125  and  _126
REMARK   49  A    between atoms: _126  and  _127
REMARK   50  A    between atoms: _127  and  _128
REMARK   51  A    between atoms: _137  and  _139
REMARK   52  A    between atoms: _139  and  _140
REMARK   53  A    between atoms: _139  and  _142
REMARK   54  A    between atoms: _142  and  _143
REMARK   55  A    between atoms: _146  and  _148
REMARK   56  A    between atoms: _148  and  _149
REMARK   57  A    between atoms: _148  and  _151
REMARK   58  A    between atoms: _154  and  _156
REMARK   59  A    between atoms: _156  and  _157
REMARK   60  A    between atoms: _156  and  _159
REMARK   61  A    between atoms: _159  and  _160
REMARK   62  A    between atoms: _164  and  _165
REMARK   63  A    between atoms: _170  and  _172
REMARK   64  A    between atoms: _172  and  _173
REMARK   65  A    between atoms: _172  and  _175
REMARK   66  A    between atoms: _175  and  _176
REMARK   67  A    between atoms: _179  and  _181
REMARK   68  A    between atoms: _181  and  _182
REMARK   69  A    between atoms: _185  and  _187
REMARK   70  A    between atoms: _187  and  _188
REMARK   71  A    between atoms: _190  and  _192
REMARK   72  A    between atoms: _192  and  _193
REMARK   73  A    between atoms: _192  and  _195
REMARK   74  A    between atoms: _195  and  _196
REMARK   75  A    between atoms: _196  and  _197
REMARK   76  A    between atoms: _197  and  _198
REMARK   77  A    between atoms: _207  and  _209
REMARK   78  A    between atoms: _209  and  _210
REMARK   79  A    between atoms: _209  and  _212
REMARK   80  A    between atoms: _212  and  _213
REMARK   81  A    between atoms: _224  and  _225
REMARK   82  A    between atoms: _230  and  _232
REMARK   83  A    between atoms: _232  and  _233
REMARK   84  A    between atoms: _232  and  _235
REMARK   85  A    between atoms: _238  and  _240
REMARK   86  A    between atoms: _240  and  _241
REMARK   87  A    between atoms: _240  and  _243
REMARK   88  A    between atoms: _243  and  _244
REMARK   89  A    between atoms: _247  and  _249
REMARK   90  A    between atoms: _249  and  _250
REMARK   91  A    between atoms: _249  and  _252
REMARK   92  A    between atoms: _255  and  _257
REMARK   93  A    between atoms: _257  and  _258
REMARK   94  A    between atoms: _257  and  _260
REMARK   95  A    between atoms: _260  and  _261
REMARK   96  A    between atoms: _264  and  _266
REMARK   97  A    between atoms: _266  and  _267
REMARK   98  A    between atoms: _270  and  _272
REMARK   99  A    between atoms: _272  and  _273
REMARK  100  A    between atoms: _272  and  _275
REMARK  101  A    between atoms: _275  and  _276
REMARK  102  A    between atoms: _279  and  _281
REMARK  103  A    between atoms: _281  and  _282
REMARK  104  A    between atoms: _281  and  _284
REMARK  105  A    between atoms: _284  and  _285
REMARK  106  A    between atoms: _288  and  _290
REMARK  107  A    between atoms: _290  and  _291
REMARK  108  A    between atoms: _290  and  _293
REMARK  109  A    between atoms: _293  and  _294
REMARK  110  A    between atoms: _294  and  _295
REMARK                            x       y       z     vdW  Elec       q    Type
REMARK                         _______ _______ _______ _____ _____    ______ ____
ROOT
ATOM      1  O   HOH     1      23.566   8.473   4.128  0.00  0.00    +0.000 OA
ENDROOT
TORSDOF 0
REMARK  Name = ../refined-set-2016/3ovn/3ovn_pocket.pdb
REMARK  110 active torsions:
REMARK  status: ('A' for Active; 'I' for Inactive)
REMARK    1  A    between atoms: _1  and  _3
REMARK    2  A    between atoms: _3  and  _4
REMARK    3  A    between atoms: _3  and  _6
REMARK    4  A    between atoms: _6  and  _7
REMARK    5  A    between atoms: _12  and  _13
REMARK    6  A    between atoms: _15  and  _17
REMARK    7  A    between atoms: _17  and  _18
REMARK    8  A    between atoms: _17  and  _20
REMARK    9  A    between atoms: _20  and  _21
REMARK   10  A    between atoms: _24  and  _26
REMARK   11  A    between atoms: _26  and  _27
REMARK   12  A    between atoms: _26  and  _29
REMARK   13  A    between atoms: _29  and  _30
REMARK   14  A    between atoms: _40  and  _42
REMARK   15  A    between atoms: _42  and  _43
REMARK   16  A    between atoms: _42  and  _45
REMARK   17  A    between atoms: _45  and  _46
REMARK   18  A    between atoms: _52  and  _54
REMARK   19  A    between atoms: _54  and  _55
REMARK   20  A    between atoms: _54  and  _57
REMARK   21  A    between atoms: _57  and  _58
REMARK   22  A    between atoms: _63  and  _65
REMARK   23  A    between atoms: _65  and  _66
REMARK   24  A    between atoms: _65  and  _68
REMARK   25  A    between atoms: _68  and  _69
REMARK   26  A    between atoms: _74  and  _76
REMARK   27  A    between atoms: _76  and  _77
REMARK   28  A    between atoms: _76  and  _79
REMARK   29  A    between atoms: _79  and  _80
REMARK   30  A    between atoms: _80  and  _81
REMARK   31  A    between atoms: _81  and  _82
REMARK   32  A    between atoms: _91  and  _93
REMARK   33  A    between atoms: _93  and  _94
REMARK   34  A    between atoms: _93  and  _96
REMARK   35  A    between atoms: _96  and  _97
REMARK   36  A    between atoms: _99  and  _101
REMARK   37  A    between atoms: _101  and  _102
REMARK   38  A    between atoms: _105  and  _107
REMARK   39  A    between atoms: _107  and  _108
REMARK   40  A    between atoms: _110  and  _112
REMARK   41  A    between atoms: _112  and  _113
REMARK   42  A    between atoms: _112  and  _115
REMARK   43  A    between atoms: _115  and  _116
REMARK   44  A    between atoms: _116  and  _117
REMARK   45  A    between atoms: _120  and  _122
REMARK   46  A    between atoms: _122  and  _123
REMARK   47  A    between atoms: _122  and  _125
REMARK   48  A    between atoms: _125  and  _126
REMARK   49  A    between atoms: _126  and  _127
REMARK   50  A    between atoms: _127  and  _128
REMARK   51  A    between atoms: _137  and  _139
REMARK   52  A    between atoms: _139  and  _140
REMARK   53  A    between atoms: _139  and  _142
REMARK   54  A    between atoms: _142  and  _143
REMARK   55  A    between atoms: _146  and  _148
REMARK   56  A    between atoms: _148  and  _149
REMARK   57  A    between atoms: _148  and  _151
REMARK   58  A    between atoms: _154  and  _156
REMARK   59  A    between atoms: _156  and  _157
REMARK   60  A    between atoms: _156  and  _159
REMARK   61  A    between atoms: _159  and  _160
REMARK   62  A    between atoms: _164  and  _165
REMARK   63  A    between atoms: _170  and  _172
REMARK   64  A    between atoms: _172  and  _173
REMARK   65  A    between atoms: _172  and  _175
REMARK   66  A    between atoms: _175  and  _176
REMARK   67  A    between atoms: _179  and  _181
REMARK   68  A    between atoms: _181  and  _182
REMARK   69  A    between atoms: _185  and  _187
REMARK   70  A    between atoms: _187  and  _188
REMARK   71  A    between atoms: _190  and  _192
REMARK   72  A    between atoms: _192  and  _193
REMARK   73  A    between atoms: _192  and  _195
REMARK   74  A    between atoms: _195  and  _196
REMARK   75  A    between atoms: _196  and  _197
REMARK   76  A    between atoms: _197  and  _198
REMARK   77  A    between atoms: _207  and  _209
REMARK   78  A    between atoms: _209  and  _210
REMARK   79  A    between atoms: _209  and  _212
REMARK   80  A    between atoms: _212  and  _213
REMARK   81  A    between atoms: _224  and  _225
REMARK   82  A    between atoms: _230  and  _232
REMARK   83  A    between atoms: _232  and  _233
REMARK   84  A    between atoms: _232  and  _235
REMARK   85  A    between atoms: _238  and  _240
REMARK   86  A    between atoms: _240  and  _241
REMARK   87  A    between atoms: _240  and  _243
REMARK   88  A    between atoms: _243  and  _244
REMARK   89  A    between atoms: _247  and  _249
REMARK   90  A    between atoms: _249  and  _250
REMARK   91  A    between atoms: _249  and  _252
REMARK   92  A    between atoms: _255  and  _257
REMARK   93  A    between atoms: _257  and  _258
REMARK   94  A    between atoms: _257  and  _260
REMARK   95  A    between atoms: _260  and  _261
REMARK   96  A    between atoms: _264  and  _266
REMARK   97  A    between atoms: _266  and  _267
REMARK   98  A    between atoms: _270  and  _272
REMARK   99  A    between atoms: _272  and  _273
REMARK  100  A    between atoms: _272  and  _275
REMARK  101  A    between atoms: _275  and  _276
REMARK  102  A    between atoms: _279  and  _281
REMARK  103  A    between atoms: _281  and  _282
REMARK  104  A    between atoms: _281  and  _284
REMARK  105  A    between atoms: _284  and  _285
REMARK  106  A    between atoms: _288  and  _290
REMARK  107  A    between atoms: _290  and  _291
REMARK  108  A    between atoms: _290  and  _293
REMARK  109  A    between atoms: _293  and  _294
REMARK  110  A    between atoms: _294  and  _295
REMARK                            x       y       z     vdW  Elec       q    Type
REMARK                         _______ _______ _______ _____ _____    ______ ____
ROOT
ATOM      1  O   HOH     1      21.649   6.925   3.735  0.00  0.00    +0.000 OA
ENDROOT
TORSDOF 0
