REMARK  Name = ../refined-set-2016/3gx0/3gx0_pocket.pdb
REMARK  238 active torsions:
REMARK  status: ('A' for Active; 'I' for Inactive)
REMARK    1  A    between atoms: _1  and  _3
REMARK    2  A    between atoms: _3  and  _4
REMARK    3  A    between atoms: _3  and  _6
REMARK    4  A    between atoms: _6  and  _7
REMARK    5  A    between atoms: _12  and  _13
REMARK    6  A    between atoms: _15  and  _17
REMARK    7  A    between atoms: _17  and  _18
REMARK    8  A    between atoms: _17  and  _20
REMARK    9  A    between atoms: _20  and  _21
REMARK   10  A    between atoms: _27  and  _29
REMARK   11  A    between atoms: _29  and  _30
REMARK   12  A    between atoms: _34  and  _35
REMARK   13  A    between atoms: _40  and  _42
REMARK   14  A    between atoms: _42  and  _43
REMARK   15  A    between atoms: _42  and  _45
REMARK   16  A    between atoms: _45  and  _46
REMARK   17  A    between atoms: _50  and  _51
REMARK   18  A    between atoms: _56  and  _58
REMARK   19  A    between atoms: _58  and  _59
REMARK   20  A    between atoms: _58  and  _61
REMARK   21  A    between atoms: _61  and  _62
REMARK   22  A    between atoms: _67  and  _69
REMARK   23  A    between atoms: _69  and  _70
REMARK   24  A    between atoms: _72  and  _74
REMARK   25  A    between atoms: _74  and  _75
REMARK   26  A    between atoms: _74  and  _77
REMARK   27  A    between atoms: _77  and  _78
REMARK   28  A    between atoms: _83  and  _85
REMARK   29  A    between atoms: _85  and  _86
REMARK   30  A    between atoms: _85  and  _88
REMARK   31  A    between atoms: _88  and  _89
REMARK   32  A    between atoms: _89  and  _90
REMARK   33  A    between atoms: _90  and  _91
REMARK   34  A    between atoms: _91  and  _92
REMARK   35  A    between atoms: _96  and  _98
REMARK   36  A    between atoms: _98  and  _99
REMARK   37  A    between atoms: _98  and  _101
REMARK   38  A    between atoms: _101  and  _102
REMARK   39  A    between atoms: _105  and  _107
REMARK   40  A    between atoms: _107  and  _108
REMARK   41  A    between atoms: _107  and  _110
REMARK   42  A    between atoms: _113  and  _115
REMARK   43  A    between atoms: _115  and  _116
REMARK   44  A    between atoms: _115  and  _118
REMARK   45  A    between atoms: _118  and  _119
REMARK   46  A    between atoms: _122  and  _124
REMARK   47  A    between atoms: _124  and  _125
REMARK   48  A    between atoms: _124  and  _127
REMARK   49  A    between atoms: _127  and  _128
REMARK   50  A    between atoms: _131  and  _133
REMARK   51  A    between atoms: _133  and  _134
REMARK   52  A    between atoms: _136  and  _138
REMARK   53  A    between atoms: _138  and  _139
REMARK   54  A    between atoms: _141  and  _143
REMARK   55  A    between atoms: _143  and  _144
REMARK   56  A    between atoms: _143  and  _146
REMARK   57  A    between atoms: _146  and  _147
REMARK   58  A    between atoms: _147  and  _148
REMARK   59  A    between atoms: _153  and  _155
REMARK   60  A    between atoms: _155  and  _156
REMARK   61  A    between atoms: _155  and  _158
REMARK   62  A    between atoms: _158  and  _159
REMARK   63  A    between atoms: _165  and  _167
REMARK   64  A    between atoms: _167  and  _168
REMARK   65  A    between atoms: _167  and  _170
REMARK   66  A    between atoms: _170  and  _171
REMARK   67  A    between atoms: _177  and  _179
REMARK   68  A    between atoms: _179  and  _180
REMARK   69  A    between atoms: _179  and  _182
REMARK   70  A    between atoms: _182  and  _183
REMARK   71  A    between atoms: _185  and  _187
REMARK   72  A    between atoms: _187  and  _188
REMARK   73  A    between atoms: _187  and  _190
REMARK   74  A    between atoms: _190  and  _191
REMARK   75  A    between atoms: _196  and  _198
REMARK   76  A    between atoms: _198  and  _199
REMARK   77  A    between atoms: _198  and  _201
REMARK   78  A    between atoms: _201  and  _202
REMARK   79  A    between atoms: _207  and  _209
REMARK   80  A    between atoms: _209  and  _210
REMARK   81  A    between atoms: _209  and  _212
REMARK   82  A    between atoms: _212  and  _213
REMARK   83  A    between atoms: _213  and  _214
REMARK   84  A    between atoms: _214  and  _215
REMARK   85  A    between atoms: _215  and  _216
REMARK   86  A    between atoms: _220  and  _222
REMARK   87  A    between atoms: _222  and  _223
REMARK   88  A    between atoms: _222  and  _225
REMARK   89  A    between atoms: _225  and  _226
REMARK   90  A    between atoms: _230  and  _231
REMARK   91  A    between atoms: _236  and  _238
REMARK   92  A    between atoms: _238  and  _239
REMARK   93  A    between atoms: _242  and  _244
REMARK   94  A    between atoms: _244  and  _245
REMARK   95  A    between atoms: _244  and  _247
REMARK   96  A    between atoms: _247  and  _248
REMARK   97  A    between atoms: _254  and  _256
REMARK   98  A    between atoms: _256  and  _257
REMARK   99  A    between atoms: _256  and  _259
REMARK  100  A    between atoms: _259  and  _260
REMARK  101  A    between atoms: _260  and  _261
REMARK  102  A    between atoms: _264  and  _266
REMARK  103  A    between atoms: _266  and  _267
REMARK  104  A    between atoms: _266  and  _269
REMARK  105  A    between atoms: _269  and  _270
REMARK  106  A    between atoms: _272  and  _274
REMARK  107  A    between atoms: _274  and  _275
REMARK  108  A    between atoms: _277  and  _279
REMARK  109  A    between atoms: _279  and  _280
REMARK  110  A    between atoms: _283  and  _285
REMARK  111  A    between atoms: _285  and  _286
REMARK  112  A    between atoms: _285  and  _288
REMARK  113  A    between atoms: _288  and  _289
REMARK  114  A    between atoms: _292  and  _294
REMARK  115  A    between atoms: _294  and  _295
REMARK  116  A    between atoms: _294  and  _297
REMARK  117  A    between atoms: _297  and  _298
REMARK  118  A    between atoms: _301  and  _303
REMARK  119  A    between atoms: _303  and  _304
REMARK  120  A    between atoms: _303  and  _306
REMARK  121  A    between atoms: _306  and  _307
REMARK  122  A    between atoms: _307  and  _308
REMARK  123  A    between atoms: _313  and  _315
REMARK  124  A    between atoms: _315  and  _316
REMARK  125  A    between atoms: _315  and  _318
REMARK  126  A    between atoms: _321  and  _323
REMARK  127  A    between atoms: _323  and  _324
REMARK  128  A    between atoms: _326  and  _328
REMARK  129  A    between atoms: _328  and  _329
REMARK  130  A    between atoms: _331  and  _333
REMARK  131  A    between atoms: _333  and  _334
REMARK  132  A    between atoms: _333  and  _336
REMARK  133  A    between atoms: _336  and  _337
REMARK  134  A    between atoms: _340  and  _342
REMARK  135  A    between atoms: _342  and  _343
REMARK  136  A    between atoms: _346  and  _347
REMARK  137  A    between atoms: _352  and  _354
REMARK  138  A    between atoms: _354  and  _355
REMARK  139  A    between atoms: _354  and  _357
REMARK  140  A    between atoms: _357  and  _358
REMARK  141  A    between atoms: _358  and  _359
REMARK  142  A    between atoms: _361  and  _363
REMARK  143  A    between atoms: _363  and  _364
REMARK  144  A    between atoms: _363  and  _366
REMARK  145  A    between atoms: _366  and  _367
REMARK  146  A    between atoms: _370  and  _372
REMARK  147  A    between atoms: _372  and  _373
REMARK  148  A    between atoms: _375  and  _377
REMARK  149  A    between atoms: _377  and  _378
REMARK  150  A    between atoms: _377  and  _380
REMARK  151  A    between atoms: _380  and  _381
REMARK  152  A    between atoms: _381  and  _382
REMARK  153  A    between atoms: _387  and  _389
REMARK  154  A    between atoms: _389  and  _390
REMARK  155  A    between atoms: _389  and  _392
REMARK  156  A    between atoms: _392  and  _393
REMARK  157  A    between atoms: _398  and  _400
REMARK  158  A    between atoms: _400  and  _401
REMARK  159  A    between atoms: _400  and  _403
REMARK  160  A    between atoms: _403  and  _404
REMARK  161  A    between atoms: _409  and  _411
REMARK  162  A    between atoms: _411  and  _412
REMARK  163  A    between atoms: _411  and  _414
REMARK  164  A    between atoms: _414  and  _415
REMARK  165  A    between atoms: _420  and  _422
REMARK  166  A    between atoms: _422  and  _423
REMARK  167  A    between atoms: _422  and  _425
REMARK  168  A    between atoms: _425  and  _426
REMARK  169  A    between atoms: _432  and  _434
REMARK  170  A    between atoms: _434  and  _435
REMARK  171  A    between atoms: _438  and  _440
REMARK  172  A    between atoms: _440  and  _441
REMARK  173  A    between atoms: _444  and  _446
REMARK  174  A    between atoms: _446  and  _447
REMARK  175  A    between atoms: _446  and  _449
REMARK  176  A    between atoms: _449  and  _450
REMARK  177  A    between atoms: _460  and  _462
REMARK  178  A    between atoms: _462  and  _463
REMARK  179  A    between atoms: _462  and  _465
REMARK  180  A    between atoms: _465  and  _466
REMARK  181  A    between atoms: _466  and  _467
REMARK  182  A    between atoms: _472  and  _474
REMARK  183  A    between atoms: _474  and  _475
REMARK  184  A    between atoms: _474  and  _477
REMARK  185  A    between atoms: _477  and  _478
REMARK  186  A    between atoms: _484  and  _486
REMARK  187  A    between atoms: _486  and  _487
REMARK  188  A    between atoms: _486  and  _489
REMARK  189  A    between atoms: _489  and  _490
REMARK  190  A    between atoms: _500  and  _502
REMARK  191  A    between atoms: _502  and  _503
REMARK  192  A    between atoms: _502  and  _505
REMARK  193  A    between atoms: _505  and  _506
REMARK  194  A    between atoms: _506  and  _507
REMARK  195  A    between atoms: _512  and  _514
REMARK  196  A    between atoms: _514  and  _515
REMARK  197  A    between atoms: _514  and  _517
REMARK  198  A    between atoms: _520  and  _522
REMARK  199  A    between atoms: _522  and  _523
REMARK  200  A    between atoms: _525  and  _527
REMARK  201  A    between atoms: _527  and  _528
REMARK  202  A    between atoms: _530  and  _532
REMARK  203  A    between atoms: _532  and  _533
REMARK  204  A    between atoms: _532  and  _535
REMARK  205  A    between atoms: _535  and  _536
REMARK  206  A    between atoms: _540  and  _541
REMARK  207  A    between atoms: _546  and  _548
REMARK  208  A    between atoms: _548  and  _549
REMARK  209  A    between atoms: _548  and  _551
REMARK  210  A    between atoms: _551  and  _552
REMARK  211  A    between atoms: _552  and  _553
REMARK  212  A    between atoms: _555  and  _557
REMARK  213  A    between atoms: _557  and  _558
REMARK  214  A    between atoms: _557  and  _560
REMARK  215  A    between atoms: _560  and  _561
REMARK  216  A    between atoms: _566  and  _567
REMARK  217  A    between atoms: _569  and  _571
REMARK  218  A    between atoms: _571  and  _572
REMARK  219  A    between atoms: _571  and  _574
REMARK  220  A    between atoms: _574  and  _575
REMARK  221  A    between atoms: _575  and  _576
REMARK  222  A    between atoms: _576  and  _577
REMARK  223  A    between atoms: _586  and  _588
REMARK  224  A    between atoms: _588  and  _589
REMARK  225  A    between atoms: _588  and  _591
REMARK  226  A    between atoms: _591  and  _592
REMARK  227  A    between atoms: _597  and  _598
REMARK  228  A    between atoms: _600  and  _602
REMARK  229  A    between atoms: _602  and  _603
REMARK  230  A    between atoms: _602  and  _605
REMARK  231  A    between atoms: _605  and  _606
REMARK  232  A    between atoms: _606  and  _607
REMARK  233  A    between atoms: _610  and  _612
REMARK  234  A    between atoms: _612  and  _613
REMARK  235  A    between atoms: _612  and  _615
REMARK  236  A    between atoms: _615  and  _616
REMARK  237  A    between atoms: _616  and  _617
REMARK  238  A    between atoms: _617  and  _618
REMARK                            x       y       z     vdW  Elec       q    Type
REMARK                         _______ _______ _______ _____ _____    ______ ____
ROOT
ATOM      1  C   THR A   5      25.037  35.799  42.331  0.00  0.00    +0.246 C 
ATOM      2  N   PRO A   6      26.179  35.260  42.808  0.00  0.00    -0.272 N 
ATOM      3  CD  PRO A   6      27.417  35.973  43.198  0.00  0.00    +0.094 C 
ATOM      4  CG  PRO A   6      28.437  34.900  43.223  0.00  0.00    +0.024 C 
ATOM      5  CB  PRO A   6      27.695  33.631  43.546  0.00  0.00    +0.031 C 
ATOM      6  CA  PRO A   6      26.309  33.820  42.930  0.00  0.00    +0.152 C 
ATOM      7  O   THR A   5      24.110  35.135  41.870  0.00  0.00    -0.273 OA
ENDROOT
BRANCH   6   8
ATOM      8  C   PRO A   6      25.223  33.211  43.821  0.00  0.00    +0.241 C 
ATOM      9  N   ASN A   7      24.933  33.857  44.940  0.00  0.00    -0.297 N 
ATOM     10  H   ASN A   7      25.374  34.781  45.123  0.00  0.00    +0.150 HD
ATOM     11  O   PRO A   6      24.658  32.180  43.467  0.00  0.00    -0.273 OA
BRANCH   9  12
ATOM     12  CA  ASN A   7      24.035  33.317  45.894  0.00  0.00    +0.158 C 
BRANCH  12  13
ATOM     13  C   ASN A   7      22.596  33.315  45.414  0.00  0.00    +0.241 C 
ATOM     14  O   ASN A   7      21.837  32.383  45.739  0.00  0.00    -0.273 OA
ATOM     15  N   GLY A   8      22.226  34.374  44.681  0.00  0.00    -0.295 N 
ATOM     16  H   GLY A   8      22.897  35.161  44.571  0.00  0.00    +0.150 HD
BRANCH  15  17
ATOM     17  CA  GLY A   8      20.942  34.471  44.040  0.00  0.00    +0.176 C 
BRANCH  17  18
ATOM     18  C   GLY A   8      20.840  33.434  42.947  0.00  0.00    +0.243 C 
ATOM     19  O   GLY A   8      19.852  32.762  42.858  0.00  0.00    -0.273 OA
ATOM     20  N   HIS A   9      21.884  33.268  42.140  0.00  0.00    -0.297 N 
ATOM     21  H   HIS A   9      22.725  33.869  42.259  0.00  0.00    +0.150 HD
BRANCH  20  22
ATOM     22  CA  HIS A   9      21.866  32.247  41.082  0.00  0.00    +0.155 C 
BRANCH  22  23
ATOM     23  C   HIS A   9      21.754  30.781  41.552  0.00  0.00    +0.241 C 
ATOM     24  N   LYS A  10      22.131  30.488  42.791  0.00  0.00    -0.297 N 
ATOM     25  H   LYS A  10      22.578  31.213  43.388  0.00  0.00    +0.150 HD
ATOM     26  O   HIS A   9      21.372  29.908  40.773  0.00  0.00    -0.273 OA
BRANCH  24  27
ATOM     27  CA  LYS A  10      21.914  29.139  43.310  0.00  0.00    +0.149 C 
BRANCH  27  28
ATOM     28  C   LYS A  10      20.460  28.768  43.272  0.00  0.00    +0.241 C 
ATOM     29  N   ILE A  11      19.598  29.731  43.596  0.00  0.00    -0.298 N 
ATOM     30  H   ILE A  11      19.944  30.689  43.805  0.00  0.00    +0.150 HD
ATOM     31  O   LYS A  10      20.105  27.620  42.943  0.00  0.00    -0.273 OA
BRANCH  29  32
ATOM     32  CA  ILE A  11      18.165  29.441  43.658  0.00  0.00    +0.137 C 
BRANCH  32  33
ATOM     33  C   ILE A  11      17.497  29.371  42.257  0.00  0.00    +0.227 C 
ATOM     34  O   ILE A  11      16.713  28.480  41.979  0.00  0.00    -0.286 OA
ENDBRANCH  32  33
BRANCH  32  35
ATOM     35  CB  ILE A  11      17.454  30.354  44.691  0.00  0.00    +0.026 C 
ATOM     36  CG2 ILE A  11      16.112  29.820  45.070  0.00  0.00    +0.002 C 
BRANCH  35  37
ATOM     37  CG1 ILE A  11      18.278  30.428  45.991  0.00  0.00    +0.002 C 
ATOM     38  CD1 ILE A  11      18.676  29.072  46.618  0.00  0.00    +0.000 C 
ENDBRANCH  35  37
ENDBRANCH  32  35
ENDBRANCH  29  32
ENDBRANCH  27  28
BRANCH  27  39
ATOM     39  CB  LYS A  10      22.390  29.045  44.733  0.00  0.00    +0.029 C 
BRANCH  39  40
ATOM     40  CG  LYS A  10      23.906  29.079  44.910  0.00  0.00    +0.000 C 
BRANCH  40  41
ATOM     41  CD  LYS A  10      24.154  29.148  46.479  0.00  0.00    -0.024 C 
BRANCH  41  42
ATOM     42  CE  LYS A  10      25.585  29.624  46.844  0.00  0.00    -0.086 C 
BRANCH  42  43
ATOM     43  NZ  LYS A  10      25.724  29.703  48.309  0.00  0.00    +0.380 N 
ATOM     44  HZ1 LYS A  10      25.556  28.764  48.723  0.00  0.00    -0.089 HD
ATOM     45  HZ2 LYS A  10      25.029  30.378  48.686  0.00  0.00    -0.089 HD
ATOM     46  HZ3 LYS A  10      26.684  30.022  48.548  0.00  0.00    -0.089 HD
ENDBRANCH  42  43
ENDBRANCH  41  42
ENDBRANCH  40  41
ENDBRANCH  39  40
ENDBRANCH  27  39
ENDBRANCH  24  27
ENDBRANCH  22  23
BRANCH  22  47
ATOM     47  CB  HIS A   9      23.090  32.393  40.174  0.00  0.00    +0.076 C 
BRANCH  47  48
ATOM     48  CG  HIS A   9      23.044  33.610  39.306  0.00  0.00    +0.082 A 
ATOM     49  ND1 HIS A   9      24.141  34.429  39.107  0.00  0.00    -0.227 NA
ATOM     50  CE1 HIS A   9      23.801  35.416  38.293  0.00  0.00    +0.199 A 
ATOM     51  NE2 HIS A   9      22.522  35.285  37.988  0.00  0.00    -0.221 NA
ATOM     52  CD2 HIS A   9      22.024  34.166  38.610  0.00  0.00    +0.115 A 
ENDBRANCH  47  48
ENDBRANCH  22  47
ENDBRANCH  20  22
ENDBRANCH  17  18
ENDBRANCH  15  17
ENDBRANCH  12  13
BRANCH  12  53
ATOM     53  CB  ASN A   7      24.168  34.053  47.208  0.00  0.00    +0.114 C 
BRANCH  53  54
ATOM     54  CG  ASN A   7      25.417  33.661  47.963  0.00  0.00    +0.222 C 
ATOM     55  ND2 ASN A   7      26.058  34.650  48.563  0.00  0.00    -0.329 N 
ATOM     56 HD21 ASN A   7      26.932  34.457  49.093  0.00  0.00    +0.145 HD
ATOM     57 HD22 ASN A   7      25.688  35.620  48.504  0.00  0.00    +0.145 HD
ATOM     58  OD1 ASN A   7      25.820  32.475  48.003  0.00  0.00    -0.275 OA
ENDBRANCH  53  54
ENDBRANCH  12  53
ENDBRANCH   9  12
ENDBRANCH   6   8
BRANCH   1  59
ATOM     59  CA  THR A   5      24.914  37.306  42.355  0.00  0.00    +0.176 C 
BRANCH  59  61
ATOM     60  C   PRO A   4      23.580  38.699  40.873  0.00  0.00    +0.241 C 
ATOM     61  N   THR A   5      23.750  37.566  41.548  0.00  0.00    -0.295 N 
ATOM     62  H   THR A   5      23.011  36.837  41.491  0.00  0.00    +0.150 HD
ATOM     63  O   PRO A   4      24.403  39.626  40.872  0.00  0.00    -0.273 OA
BRANCH  60  70
ATOM     64  C   ALA A   3      20.907  39.241  42.203  0.00  0.00    +0.244 C 
ATOM     65  O   ALA A   3      21.165  38.111  42.626  0.00  0.00    -0.273 OA
ATOM     66  N   PRO A   4      21.449  39.746  41.058  0.00  0.00    -0.272 N 
ATOM     67  CD  PRO A   4      21.462  41.141  40.563  0.00  0.00    +0.094 C 
ATOM     68  CG  PRO A   4      21.575  40.970  39.083  0.00  0.00    +0.024 C 
ATOM     69  CB  PRO A   4      22.375  39.660  38.861  0.00  0.00    +0.031 C 
ATOM     70  CA  PRO A   4      22.240  38.860  40.181  0.00  0.00    +0.152 C 
BRANCH  64  71
ATOM     71  CA  ALA A   3      19.980  40.128  43.018  0.00  0.00    +0.149 C 
ATOM     72  CB  ALA A   3      20.732  40.886  44.023  0.00  0.00    +0.031 C 
BRANCH  71  74
ATOM     73  C   PHE A   2      17.753  39.374  43.704  0.00  0.00    +0.241 C 
ATOM     74  N   ALA A   3      19.070  39.197  43.675  0.00  0.00    -0.297 N 
ATOM     75  H   ALA A   3      19.469  38.358  44.141  0.00  0.00    +0.150 HD
ATOM     76  O   PHE A   2      17.220  40.418  43.389  0.00  0.00    -0.273 OA
BRANCH  73  77
ATOM     77  CA  PHE A   2      16.924  38.173  44.121  0.00  0.00    +0.153 C 
BRANCH  77  80
ATOM     78  C   TYR A   1      15.413  37.696  45.999  0.00  0.00    +0.239 C 
ATOM     79  O   TYR A   1      16.183  36.918  46.597  0.00  0.00    -0.274 OA
ATOM     80  N   PHE A   2      15.801  38.511  45.010  0.00  0.00    -0.297 N 
ATOM     81  H   PHE A   2      15.295  39.408  44.866  0.00  0.00    +0.150 HD
BRANCH  78  82
ATOM     82  CA  TYR A   1      13.932  37.776  46.381  0.00  0.00    +0.149 C 
BRANCH  82  83
ATOM     83  N   TYR A   1      13.296  36.466  46.188  0.00  0.00    -0.238 NA
ATOM     84  H   TYR A   1      13.163  35.846  47.012  0.00  0.00    +0.142 HD
ENDBRANCH  82  83
BRANCH  82  85
ATOM     85  CB  TYR A   1      13.751  38.245  47.817  0.00  0.00    +0.053 C 
BRANCH  85  86
ATOM     86  CG  TYR A   1      12.314  38.560  48.088  0.00  0.00    -0.020 A 
ATOM     87  CD2 TYR A   1      11.876  39.879  48.204  0.00  0.00    -0.001 A 
ATOM     88  CE2 TYR A   1      10.521  40.157  48.427  0.00  0.00    +0.036 A 
ATOM     89  CZ  TYR A   1       9.621  39.098  48.531  0.00  0.00    +0.134 A 
ATOM     90  CE1 TYR A   1      10.056  37.793  48.415  0.00  0.00    +0.036 A 
ATOM     91  CD1 TYR A   1      11.373  37.530  48.201  0.00  0.00    -0.001 A 
BRANCH  89  92
ATOM     92  OH  TYR A   1       8.287  39.320  48.744  0.00  0.00    -0.506 OA
ATOM     93  HH  TYR A   1       7.812  38.452  48.789  0.00  0.00    +0.292 HD
ENDBRANCH  89  92
ENDBRANCH  85  86
ENDBRANCH  82  85
ENDBRANCH  78  82
ENDBRANCH  77  80
BRANCH  77  94
ATOM     94  CB  PHE A   2      16.375  37.480  42.862  0.00  0.00    +0.055 C 
BRANCH  94  95
ATOM     95  CG  PHE A   2      17.415  37.169  41.806  0.00  0.00    -0.020 A 
ATOM     96  CD2 PHE A   2      18.163  35.989  41.868  0.00  0.00    -0.004 A 
ATOM     97  CE2 PHE A   2      19.126  35.670  40.897  0.00  0.00    -0.000 A 
ATOM     98  CZ  PHE A   2      19.340  36.530  39.826  0.00  0.00    -0.000 A 
ATOM     99  CE1 PHE A   2      18.578  37.719  39.722  0.00  0.00    -0.000 A 
ATOM    100  CD1 PHE A   2      17.618  38.029  40.722  0.00  0.00    -0.004 A 
ENDBRANCH  94  95
ENDBRANCH  77  94
ENDBRANCH  73  77
ENDBRANCH  71  74
ENDBRANCH  64  71
ENDBRANCH  60  70
ENDBRANCH  59  61
BRANCH  59 101
ATOM    101  CB  THR A   5      24.696  37.740  43.837  0.00  0.00    +0.137 C 
ATOM    102  CG2 THR A   5      24.561  39.285  43.978  0.00  0.00    +0.034 C 
BRANCH 101 103
ATOM    103  OG1 THR A   5      23.523  37.083  44.355  0.00  0.00    -0.382 OA
ATOM    104  HG1 THR A   5      22.735  37.341  43.813  0.00  0.00    +0.210 HD
ENDBRANCH 101 103
ENDBRANCH  59 101
ENDBRANCH   1  59
TORSDOF 38
REMARK  Name = ../refined-set-2016/3gx0/3gx0_pocket.pdb
REMARK  238 active torsions:
REMARK  status: ('A' for Active; 'I' for Inactive)
REMARK    1  A    between atoms: _1  and  _3
REMARK    2  A    between atoms: _3  and  _4
REMARK    3  A    between atoms: _3  and  _6
REMARK    4  A    between atoms: _6  and  _7
REMARK    5  A    between atoms: _12  and  _13
REMARK    6  A    between atoms: _15  and  _17
REMARK    7  A    between atoms: _17  and  _18
REMARK    8  A    between atoms: _17  and  _20
REMARK    9  A    between atoms: _20  and  _21
REMARK   10  A    between atoms: _27  and  _29
REMARK   11  A    between atoms: _29  and  _30
REMARK   12  A    between atoms: _34  and  _35
REMARK   13  A    between atoms: _40  and  _42
REMARK   14  A    between atoms: _42  and  _43
REMARK   15  A    between atoms: _42  and  _45
REMARK   16  A    between atoms: _45  and  _46
REMARK   17  A    between atoms: _50  and  _51
REMARK   18  A    between atoms: _56  and  _58
REMARK   19  A    between atoms: _58  and  _59
REMARK   20  A    between atoms: _58  and  _61
REMARK   21  A    between atoms: _61  and  _62
REMARK   22  A    between atoms: _67  and  _69
REMARK   23  A    between atoms: _69  and  _70
REMARK   24  A    between atoms: _72  and  _74
REMARK   25  A    between atoms: _74  and  _75
REMARK   26  A    between atoms: _74  and  _77
REMARK   27  A    between atoms: _77  and  _78
REMARK   28  A    between atoms: _83  and  _85
REMARK   29  A    between atoms: _85  and  _86
REMARK   30  A    between atoms: _85  and  _88
REMARK   31  A    between atoms: _88  and  _89
REMARK   32  A    between atoms: _89  and  _90
REMARK   33  A    between atoms: _90  and  _91
REMARK   34  A    between atoms: _91  and  _92
REMARK   35  A    between atoms: _96  and  _98
REMARK   36  A    between atoms: _98  and  _99
REMARK   37  A    between atoms: _98  and  _101
REMARK   38  A    between atoms: _101  and  _102
REMARK   39  A    between atoms: _105  and  _107
REMARK   40  A    between atoms: _107  and  _108
REMARK   41  A    between atoms: _107  and  _110
REMARK   42  A    between atoms: _113  and  _115
REMARK   43  A    between atoms: _115  and  _116
REMARK   44  A    between atoms: _115  and  _118
REMARK   45  A    between atoms: _118  and  _119
REMARK   46  A    between atoms: _122  and  _124
REMARK   47  A    between atoms: _124  and  _125
REMARK   48  A    between atoms: _124  and  _127
REMARK   49  A    between atoms: _127  and  _128
REMARK   50  A    between atoms: _131  and  _133
REMARK   51  A    between atoms: _133  and  _134
REMARK   52  A    between atoms: _136  and  _138
REMARK   53  A    between atoms: _138  and  _139
REMARK   54  A    between atoms: _141  and  _143
REMARK   55  A    between atoms: _143  and  _144
REMARK   56  A    between atoms: _143  and  _146
REMARK   57  A    between atoms: _146  and  _147
REMARK   58  A    between atoms: _147  and  _148
REMARK   59  A    between atoms: _153  and  _155
REMARK   60  A    between atoms: _155  and  _156
REMARK   61  A    between atoms: _155  and  _158
REMARK   62  A    between atoms: _158  and  _159
REMARK   63  A    between atoms: _165  and  _167
REMARK   64  A    between atoms: _167  and  _168
REMARK   65  A    between atoms: _167  and  _170
REMARK   66  A    between atoms: _170  and  _171
REMARK   67  A    between atoms: _177  and  _179
REMARK   68  A    between atoms: _179  and  _180
REMARK   69  A    between atoms: _179  and  _182
REMARK   70  A    between atoms: _182  and  _183
REMARK   71  A    between atoms: _185  and  _187
REMARK   72  A    between atoms: _187  and  _188
REMARK   73  A    between atoms: _187  and  _190
REMARK   74  A    between atoms: _190  and  _191
REMARK   75  A    between atoms: _196  and  _198
REMARK   76  A    between atoms: _198  and  _199
REMARK   77  A    between atoms: _198  and  _201
REMARK   78  A    between atoms: _201  and  _202
REMARK   79  A    between atoms: _207  and  _209
REMARK   80  A    between atoms: _209  and  _210
REMARK   81  A    between atoms: _209  and  _212
REMARK   82  A    between atoms: _212  and  _213
REMARK   83  A    between atoms: _213  and  _214
REMARK   84  A    between atoms: _214  and  _215
REMARK   85  A    between atoms: _215  and  _216
REMARK   86  A    between atoms: _220  and  _222
REMARK   87  A    between atoms: _222  and  _223
REMARK   88  A    between atoms: _222  and  _225
REMARK   89  A    between atoms: _225  and  _226
REMARK   90  A    between atoms: _230  and  _231
REMARK   91  A    between atoms: _236  and  _238
REMARK   92  A    between atoms: _238  and  _239
REMARK   93  A    between atoms: _242  and  _244
REMARK   94  A    between atoms: _244  and  _245
REMARK   95  A    between atoms: _244  and  _247
REMARK   96  A    between atoms: _247  and  _248
REMARK   97  A    between atoms: _254  and  _256
REMARK   98  A    between atoms: _256  and  _257
REMARK   99  A    between atoms: _256  and  _259
REMARK  100  A    between atoms: _259  and  _260
REMARK  101  A    between atoms: _260  and  _261
REMARK  102  A    between atoms: _264  and  _266
REMARK  103  A    between atoms: _266  and  _267
REMARK  104  A    between atoms: _266  and  _269
REMARK  105  A    between atoms: _269  and  _270
REMARK  106  A    between atoms: _272  and  _274
REMARK  107  A    between atoms: _274  and  _275
REMARK  108  A    between atoms: _277  and  _279
REMARK  109  A    between atoms: _279  and  _280
REMARK  110  A    between atoms: _283  and  _285
REMARK  111  A    between atoms: _285  and  _286
REMARK  112  A    between atoms: _285  and  _288
REMARK  113  A    between atoms: _288  and  _289
REMARK  114  A    between atoms: _292  and  _294
REMARK  115  A    between atoms: _294  and  _295
REMARK  116  A    between atoms: _294  and  _297
REMARK  117  A    between atoms: _297  and  _298
REMARK  118  A    between atoms: _301  and  _303
REMARK  119  A    between atoms: _303  and  _304
REMARK  120  A    between atoms: _303  and  _306
REMARK  121  A    between atoms: _306  and  _307
REMARK  122  A    between atoms: _307  and  _308
REMARK  123  A    between atoms: _313  and  _315
REMARK  124  A    between atoms: _315  and  _316
REMARK  125  A    between atoms: _315  and  _318
REMARK  126  A    between atoms: _321  and  _323
REMARK  127  A    between atoms: _323  and  _324
REMARK  128  A    between atoms: _326  and  _328
REMARK  129  A    between atoms: _328  and  _329
REMARK  130  A    between atoms: _331  and  _333
REMARK  131  A    between atoms: _333  and  _334
REMARK  132  A    between atoms: _333  and  _336
REMARK  133  A    between atoms: _336  and  _337
REMARK  134  A    between atoms: _340  and  _342
REMARK  135  A    between atoms: _342  and  _343
REMARK  136  A    between atoms: _346  and  _347
REMARK  137  A    between atoms: _352  and  _354
REMARK  138  A    between atoms: _354  and  _355
REMARK  139  A    between atoms: _354  and  _357
REMARK  140  A    between atoms: _357  and  _358
REMARK  141  A    between atoms: _358  and  _359
REMARK  142  A    between atoms: _361  and  _363
REMARK  143  A    between atoms: _363  and  _364
REMARK  144  A    between atoms: _363  and  _366
REMARK  145  A    between atoms: _366  and  _367
REMARK  146  A    between atoms: _370  and  _372
REMARK  147  A    between atoms: _372  and  _373
REMARK  148  A    between atoms: _375  and  _377
REMARK  149  A    between atoms: _377  and  _378
REMARK  150  A    between atoms: _377  and  _380
REMARK  151  A    between atoms: _380  and  _381
REMARK  152  A    between atoms: _381  and  _382
REMARK  153  A    between atoms: _387  and  _389
REMARK  154  A    between atoms: _389  and  _390
REMARK  155  A    between atoms: _389  and  _392
REMARK  156  A    between atoms: _392  and  _393
REMARK  157  A    between atoms: _398  and  _400
REMARK  158  A    between atoms: _400  and  _401
REMARK  159  A    between atoms: _400  and  _403
REMARK  160  A    between atoms: _403  and  _404
REMARK  161  A    between atoms: _409  and  _411
REMARK  162  A    between atoms: _411  and  _412
REMARK  163  A    between atoms: _411  and  _414
REMARK  164  A    between atoms: _414  and  _415
REMARK  165  A    between atoms: _420  and  _422
REMARK  166  A    between atoms: _422  and  _423
REMARK  167  A    between atoms: _422  and  _425
REMARK  168  A    between atoms: _425  and  _426
REMARK  169  A    between atoms: _432  and  _434
REMARK  170  A    between atoms: _434  and  _435
REMARK  171  A    between atoms: _438  and  _440
REMARK  172  A    between atoms: _440  and  _441
REMARK  173  A    between atoms: _444  and  _446
REMARK  174  A    between atoms: _446  and  _447
REMARK  175  A    between atoms: _446  and  _449
REMARK  176  A    between atoms: _449  and  _450
REMARK  177  A    between atoms: _460  and  _462
REMARK  178  A    between atoms: _462  and  _463
REMARK  179  A    between atoms: _462  and  _465
REMARK  180  A    between atoms: _465  and  _466
REMARK  181  A    between atoms: _466  and  _467
REMARK  182  A    between atoms: _472  and  _474
REMARK  183  A    between atoms: _474  and  _475
REMARK  184  A    between atoms: _474  and  _477
REMARK  185  A    between atoms: _477  and  _478
REMARK  186  A    between atoms: _484  and  _486
REMARK  187  A    between atoms: _486  and  _487
REMARK  188  A    between atoms: _486  and  _489
REMARK  189  A    between atoms: _489  and  _490
REMARK  190  A    between atoms: _500  and  _502
REMARK  191  A    between atoms: _502  and  _503
REMARK  192  A    between atoms: _502  and  _505
REMARK  193  A    between atoms: _505  and  _506
REMARK  194  A    between atoms: _506  and  _507
REMARK  195  A    between atoms: _512  and  _514
REMARK  196  A    between atoms: _514  and  _515
REMARK  197  A    between atoms: _514  and  _517
REMARK  198  A    between atoms: _520  and  _522
REMARK  199  A    between atoms: _522  and  _523
REMARK  200  A    between atoms: _525  and  _527
REMARK  201  A    between atoms: _527  and  _528
REMARK  202  A    between atoms: _530  and  _532
REMARK  203  A    between atoms: _532  and  _533
REMARK  204  A    between atoms: _532  and  _535
REMARK  205  A    between atoms: _535  and  _536
REMARK  206  A    between atoms: _540  and  _541
REMARK  207  A    between atoms: _546  and  _548
REMARK  208  A    between atoms: _548  and  _549
REMARK  209  A    between atoms: _548  and  _551
REMARK  210  A    between atoms: _551  and  _552
REMARK  211  A    between atoms: _552  and  _553
REMARK  212  A    between atoms: _555  and  _557
REMARK  213  A    between atoms: _557  and  _558
REMARK  214  A    between atoms: _557  and  _560
REMARK  215  A    between atoms: _560  and  _561
REMARK  216  A    between atoms: _566  and  _567
REMARK  217  A    between atoms: _569  and  _571
REMARK  218  A    between atoms: _571  and  _572
REMARK  219  A    between atoms: _571  and  _574
REMARK  220  A    between atoms: _574  and  _575
REMARK  221  A    between atoms: _575  and  _576
REMARK  222  A    between atoms: _576  and  _577
REMARK  223  A    between atoms: _586  and  _588
REMARK  224  A    between atoms: _588  and  _589
REMARK  225  A    between atoms: _588  and  _591
REMARK  226  A    between atoms: _591  and  _592
REMARK  227  A    between atoms: _597  and  _598
REMARK  228  A    between atoms: _600  and  _602
REMARK  229  A    between atoms: _602  and  _603
REMARK  230  A    between atoms: _602  and  _605
REMARK  231  A    between atoms: _605  and  _606
REMARK  232  A    between atoms: _606  and  _607
REMARK  233  A    between atoms: _610  and  _612
REMARK  234  A    between atoms: _612  and  _613
REMARK  235  A    between atoms: _612  and  _615
REMARK  236  A    between atoms: _615  and  _616
REMARK  237  A    between atoms: _616  and  _617
REMARK  238  A    between atoms: _617  and  _618
REMARK                            x       y       z     vdW  Elec       q    Type
REMARK                         _______ _______ _______ _____ _____    ______ ____
ROOT
ATOM      1  C   ASP A   2      19.260  46.807  46.097  0.00  0.00    +0.241 C 
ATOM      2  O   ASP A   2      18.977  47.534  47.054  0.00  0.00    -0.273 OA
ATOM      3  N   LEU A   3      20.427  46.181  45.970  0.00  0.00    -0.297 N 
ATOM      4  H   LEU A   3      20.684  45.761  45.054  0.00  0.00    +0.150 HD
ENDROOT
BRANCH   1   5
ATOM      5  CA  ASP A   2      18.274  46.577  44.950  0.00  0.00    +0.160 C 
BRANCH   5   7
ATOM      6  C   VAL A   1      17.284  44.346  45.167  0.00  0.00    +0.238 C 
ATOM      7  N   ASP A   2      17.206  45.664  45.381  0.00  0.00    -0.297 N 
ATOM      8  H   ASP A   2      16.370  46.052  45.864  0.00  0.00    +0.150 HD
ATOM      9  O   VAL A   1      18.280  43.800  44.637  0.00  0.00    -0.274 OA
BRANCH   6  10
ATOM     10  CA  VAL A   1      16.043  43.507  45.559  0.00  0.00    +0.145 C 
BRANCH  10  11
ATOM     11  CB  VAL A   1      16.347  42.578  46.785  0.00  0.00    +0.025 C 
ATOM     12  CG2 VAL A   1      16.908  43.368  47.965  0.00  0.00    +0.002 C 
ATOM     13  CG1 VAL A   1      15.117  41.760  47.196  0.00  0.00    +0.002 C 
ENDBRANCH  10  11
BRANCH  10  14
ATOM     14  N   VAL A   1      15.665  42.743  44.374  0.00  0.00    -0.238 NA
ATOM     15  H   VAL A   1      16.299  41.984  44.054  0.00  0.00    +0.142 HD
ENDBRANCH  10  14
ENDBRANCH   6  10
ENDBRANCH   5   7
BRANCH   5  16
ATOM     16  CB  ASP A   2      17.699  47.894  44.406  0.00  0.00    +0.143 C 
BRANCH  16  17
ATOM     17  CG  ASP A   2      18.741  48.751  43.653  0.00  0.00    +0.367 C 
ATOM     18  OD2 ASP A   2      19.972  48.660  43.921  0.00  0.00    -0.246 OA
ATOM     19  OD1 ASP A   2      18.302  49.562  42.791  0.00  0.00    -0.246 OA
ENDBRANCH  16  17
ENDBRANCH   5  16
ENDBRANCH   1   5
BRANCH   3  20
ATOM     20  CA  LEU A   3      21.348  46.073  47.085  0.00  0.00    +0.149 C 
BRANCH  20  21
ATOM     21  C   LEU A   3      22.249  47.300  47.226  0.00  0.00    +0.241 C 
ATOM     22  O   LEU A   3      22.697  47.621  48.333  0.00  0.00    -0.273 OA
ATOM     23  N   GLY A   4      22.510  47.977  46.106  0.00  0.00    -0.296 N 
ATOM     24  H   GLY A   4      22.209  47.576  45.195  0.00  0.00    +0.150 HD
BRANCH  23  25
ATOM     25  CA  GLY A   4      23.209  49.271  46.115  0.00  0.00    +0.163 C 
BRANCH  25  26
ATOM     26  C   GLY A   4      22.323  50.408  46.634  0.00  0.00    +0.229 C 
ATOM     27  O   GLY A   4      22.810  51.489  46.977  0.00  0.00    -0.286 OA
ENDBRANCH  25  26
ENDBRANCH  23  25
ENDBRANCH  20  21
BRANCH  20  28
ATOM     28  CB  LEU A   3      22.168  44.761  46.994  0.00  0.00    +0.029 C 
BRANCH  28  29
ATOM     29  CG  LEU A   3      21.459  43.388  46.981  0.00  0.00    +0.002 C 
ATOM     30  CD2 LEU A   3      20.567  43.173  48.203  0.00  0.00    +0.000 C 
ATOM     31  CD1 LEU A   3      22.459  42.218  46.826  0.00  0.00    +0.000 C 
ENDBRANCH  28  29
ENDBRANCH  20  28
ENDBRANCH   3  20
TORSDOF 13
REMARK  Name = ../refined-set-2016/3gx0/3gx0_pocket.pdb
REMARK  238 active torsions:
REMARK  status: ('A' for Active; 'I' for Inactive)
REMARK    1  A    between atoms: _1  and  _3
REMARK    2  A    between atoms: _3  and  _4
REMARK    3  A    between atoms: _3  and  _6
REMARK    4  A    between atoms: _6  and  _7
REMARK    5  A    between atoms: _12  and  _13
REMARK    6  A    between atoms: _15  and  _17
REMARK    7  A    between atoms: _17  and  _18
REMARK    8  A    between atoms: _17  and  _20
REMARK    9  A    between atoms: _20  and  _21
REMARK   10  A    between atoms: _27  and  _29
REMARK   11  A    between atoms: _29  and  _30
REMARK   12  A    between atoms: _34  and  _35
REMARK   13  A    between atoms: _40  and  _42
REMARK   14  A    between atoms: _42  and  _43
REMARK   15  A    between atoms: _42  and  _45
REMARK   16  A    between atoms: _45  and  _46
REMARK   17  A    between atoms: _50  and  _51
REMARK   18  A    between atoms: _56  and  _58
REMARK   19  A    between atoms: _58  and  _59
REMARK   20  A    between atoms: _58  and  _61
REMARK   21  A    between atoms: _61  and  _62
REMARK   22  A    between atoms: _67  and  _69
REMARK   23  A    between atoms: _69  and  _70
REMARK   24  A    between atoms: _72  and  _74
REMARK   25  A    between atoms: _74  and  _75
REMARK   26  A    between atoms: _74  and  _77
REMARK   27  A    between atoms: _77  and  _78
REMARK   28  A    between atoms: _83  and  _85
REMARK   29  A    between atoms: _85  and  _86
REMARK   30  A    between atoms: _85  and  _88
REMARK   31  A    between atoms: _88  and  _89
REMARK   32  A    between atoms: _89  and  _90
REMARK   33  A    between atoms: _90  and  _91
REMARK   34  A    between atoms: _91  and  _92
REMARK   35  A    between atoms: _96  and  _98
REMARK   36  A    between atoms: _98  and  _99
REMARK   37  A    between atoms: _98  and  _101
REMARK   38  A    between atoms: _101  and  _102
REMARK   39  A    between atoms: _105  and  _107
REMARK   40  A    between atoms: _107  and  _108
REMARK   41  A    between atoms: _107  and  _110
REMARK   42  A    between atoms: _113  and  _115
REMARK   43  A    between atoms: _115  and  _116
REMARK   44  A    between atoms: _115  and  _118
REMARK   45  A    between atoms: _118  and  _119
REMARK   46  A    between atoms: _122  and  _124
REMARK   47  A    between atoms: _124  and  _125
REMARK   48  A    between atoms: _124  and  _127
REMARK   49  A    between atoms: _127  and  _128
REMARK   50  A    between atoms: _131  and  _133
REMARK   51  A    between atoms: _133  and  _134
REMARK   52  A    between atoms: _136  and  _138
REMARK   53  A    between atoms: _138  and  _139
REMARK   54  A    between atoms: _141  and  _143
REMARK   55  A    between atoms: _143  and  _144
REMARK   56  A    between atoms: _143  and  _146
REMARK   57  A    between atoms: _146  and  _147
REMARK   58  A    between atoms: _147  and  _148
REMARK   59  A    between atoms: _153  and  _155
REMARK   60  A    between atoms: _155  and  _156
REMARK   61  A    between atoms: _155  and  _158
REMARK   62  A    between atoms: _158  and  _159
REMARK   63  A    between atoms: _165  and  _167
REMARK   64  A    between atoms: _167  and  _168
REMARK   65  A    between atoms: _167  and  _170
REMARK   66  A    between atoms: _170  and  _171
REMARK   67  A    between atoms: _177  and  _179
REMARK   68  A    between atoms: _179  and  _180
REMARK   69  A    between atoms: _179  and  _182
REMARK   70  A    between atoms: _182  and  _183
REMARK   71  A    between atoms: _185  and  _187
REMARK   72  A    between atoms: _187  and  _188
REMARK   73  A    between atoms: _187  and  _190
REMARK   74  A    between atoms: _190  and  _191
REMARK   75  A    between atoms: _196  and  _198
REMARK   76  A    between atoms: _198  and  _199
REMARK   77  A    between atoms: _198  and  _201
REMARK   78  A    between atoms: _201  and  _202
REMARK   79  A    between atoms: _207  and  _209
REMARK   80  A    between atoms: _209  and  _210
REMARK   81  A    between atoms: _209  and  _212
REMARK   82  A    between atoms: _212  and  _213
REMARK   83  A    between atoms: _213  and  _214
REMARK   84  A    between atoms: _214  and  _215
REMARK   85  A    between atoms: _215  and  _216
REMARK   86  A    between atoms: _220  and  _222
REMARK   87  A    between atoms: _222  and  _223
REMARK   88  A    between atoms: _222  and  _225
REMARK   89  A    between atoms: _225  and  _226
REMARK   90  A    between atoms: _230  and  _231
REMARK   91  A    between atoms: _236  and  _238
REMARK   92  A    between atoms: _238  and  _239
REMARK   93  A    between atoms: _242  and  _244
REMARK   94  A    between atoms: _244  and  _245
REMARK   95  A    between atoms: _244  and  _247
REMARK   96  A    between atoms: _247  and  _248
REMARK   97  A    between atoms: _254  and  _256
REMARK   98  A    between atoms: _256  and  _257
REMARK   99  A    between atoms: _256  and  _259
REMARK  100  A    between atoms: _259  and  _260
REMARK  101  A    between atoms: _260  and  _261
REMARK  102  A    between atoms: _264  and  _266
REMARK  103  A    between atoms: _266  and  _267
REMARK  104  A    between atoms: _266  and  _269
REMARK  105  A    between atoms: _269  and  _270
REMARK  106  A    between atoms: _272  and  _274
REMARK  107  A    between atoms: _274  and  _275
REMARK  108  A    between atoms: _277  and  _279
REMARK  109  A    between atoms: _279  and  _280
REMARK  110  A    between atoms: _283  and  _285
REMARK  111  A    between atoms: _285  and  _286
REMARK  112  A    between atoms: _285  and  _288
REMARK  113  A    between atoms: _288  and  _289
REMARK  114  A    between atoms: _292  and  _294
REMARK  115  A    between atoms: _294  and  _295
REMARK  116  A    between atoms: _294  and  _297
REMARK  117  A    between atoms: _297  and  _298
REMARK  118  A    between atoms: _301  and  _303
REMARK  119  A    between atoms: _303  and  _304
REMARK  120  A    between atoms: _303  and  _306
REMARK  121  A    between atoms: _306  and  _307
REMARK  122  A    between atoms: _307  and  _308
REMARK  123  A    between atoms: _313  and  _315
REMARK  124  A    between atoms: _315  and  _316
REMARK  125  A    between atoms: _315  and  _318
REMARK  126  A    between atoms: _321  and  _323
REMARK  127  A    between atoms: _323  and  _324
REMARK  128  A    between atoms: _326  and  _328
REMARK  129  A    between atoms: _328  and  _329
REMARK  130  A    between atoms: _331  and  _333
REMARK  131  A    between atoms: _333  and  _334
REMARK  132  A    between atoms: _333  and  _336
REMARK  133  A    between atoms: _336  and  _337
REMARK  134  A    between atoms: _340  and  _342
REMARK  135  A    between atoms: _342  and  _343
REMARK  136  A    between atoms: _346  and  _347
REMARK  137  A    between atoms: _352  and  _354
REMARK  138  A    between atoms: _354  and  _355
REMARK  139  A    between atoms: _354  and  _357
REMARK  140  A    between atoms: _357  and  _358
REMARK  141  A    between atoms: _358  and  _359
REMARK  142  A    between atoms: _361  and  _363
REMARK  143  A    between atoms: _363  and  _364
REMARK  144  A    between atoms: _363  and  _366
REMARK  145  A    between atoms: _366  and  _367
REMARK  146  A    between atoms: _370  and  _372
REMARK  147  A    between atoms: _372  and  _373
REMARK  148  A    between atoms: _375  and  _377
REMARK  149  A    between atoms: _377  and  _378
REMARK  150  A    between atoms: _377  and  _380
REMARK  151  A    between atoms: _380  and  _381
REMARK  152  A    between atoms: _381  and  _382
REMARK  153  A    between atoms: _387  and  _389
REMARK  154  A    between atoms: _389  and  _390
REMARK  155  A    between atoms: _389  and  _392
REMARK  156  A    between atoms: _392  and  _393
REMARK  157  A    between atoms: _398  and  _400
REMARK  158  A    between atoms: _400  and  _401
REMARK  159  A    between atoms: _400  and  _403
REMARK  160  A    between atoms: _403  and  _404
REMARK  161  A    between atoms: _409  and  _411
REMARK  162  A    between atoms: _411  and  _412
REMARK  163  A    between atoms: _411  and  _414
REMARK  164  A    between atoms: _414  and  _415
REMARK  165  A    between atoms: _420  and  _422
REMARK  166  A    between atoms: _422  and  _423
REMARK  167  A    between atoms: _422  and  _425
REMARK  168  A    between atoms: _425  and  _426
REMARK  169  A    between atoms: _432  and  _434
REMARK  170  A    between atoms: _434  and  _435
REMARK  171  A    between atoms: _438  and  _440
REMARK  172  A    between atoms: _440  and  _441
REMARK  173  A    between atoms: _444  and  _446
REMARK  174  A    between atoms: _446  and  _447
REMARK  175  A    between atoms: _446  and  _449
REMARK  176  A    between atoms: _449  and  _450
REMARK  177  A    between atoms: _460  and  _462
REMARK  178  A    between atoms: _462  and  _463
REMARK  179  A    between atoms: _462  and  _465
REMARK  180  A    between atoms: _465  and  _466
REMARK  181  A    between atoms: _466  and  _467
REMARK  182  A    between atoms: _472  and  _474
REMARK  183  A    between atoms: _474  and  _475
REMARK  184  A    between atoms: _474  and  _477
REMARK  185  A    between atoms: _477  and  _478
REMARK  186  A    between atoms: _484  and  _486
REMARK  187  A    between atoms: _486  and  _487
REMARK  188  A    between atoms: _486  and  _489
REMARK  189  A    between atoms: _489  and  _490
REMARK  190  A    between atoms: _500  and  _502
REMARK  191  A    between atoms: _502  and  _503
REMARK  192  A    between atoms: _502  and  _505
REMARK  193  A    between atoms: _505  and  _506
REMARK  194  A    between atoms: _506  and  _507
REMARK  195  A    between atoms: _512  and  _514
REMARK  196  A    between atoms: _514  and  _515
REMARK  197  A    between atoms: _514  and  _517
REMARK  198  A    between atoms: _520  and  _522
REMARK  199  A    between atoms: _522  and  _523
REMARK  200  A    between atoms: _525  and  _527
REMARK  201  A    between atoms: _527  and  _528
REMARK  202  A    between atoms: _530  and  _532
REMARK  203  A    between atoms: _532  and  _533
REMARK  204  A    between atoms: _532  and  _535
REMARK  205  A    between atoms: _535  and  _536
REMARK  206  A    between atoms: _540  and  _541
REMARK  207  A    between atoms: _546  and  _548
REMARK  208  A    between atoms: _548  and  _549
REMARK  209  A    between atoms: _548  and  _551
REMARK  210  A    between atoms: _551  and  _552
REMARK  211  A    between atoms: _552  and  _553
REMARK  212  A    between atoms: _555  and  _557
REMARK  213  A    between atoms: _557  and  _558
REMARK  214  A    between atoms: _557  and  _560
REMARK  215  A    between atoms: _560  and  _561
REMARK  216  A    between atoms: _566  and  _567
REMARK  217  A    between atoms: _569  and  _571
REMARK  218  A    between atoms: _571  and  _572
REMARK  219  A    between atoms: _571  and  _574
REMARK  220  A    between atoms: _574  and  _575
REMARK  221  A    between atoms: _575  and  _576
REMARK  222  A    between atoms: _576  and  _577
REMARK  223  A    between atoms: _586  and  _588
REMARK  224  A    between atoms: _588  and  _589
REMARK  225  A    between atoms: _588  and  _591
REMARK  226  A    between atoms: _591  and  _592
REMARK  227  A    between atoms: _597  and  _598
REMARK  228  A    between atoms: _600  and  _602
REMARK  229  A    between atoms: _602  and  _603
REMARK  230  A    between atoms: _602  and  _605
REMARK  231  A    between atoms: _605  and  _606
REMARK  232  A    between atoms: _606  and  _607
REMARK  233  A    between atoms: _610  and  _612
REMARK  234  A    between atoms: _612  and  _613
REMARK  235  A    between atoms: _612  and  _615
REMARK  236  A    between atoms: _615  and  _616
REMARK  237  A    between atoms: _616  and  _617
REMARK  238  A    between atoms: _617  and  _618
REMARK                            x       y       z     vdW  Elec       q    Type
REMARK                         _______ _______ _______ _____ _____    ______ ____
ROOT
ATOM      1  CA  GLY A   1      19.554  49.378  50.485  0.00  0.00    +0.156 C 
ENDROOT
BRANCH   1   2
ATOM      2  N   GLY A   1      20.009  49.805  49.153  0.00  0.00    -0.238 NA
ATOM      3  H   GLY A   1      20.823  49.323  48.722  0.00  0.00    +0.142 HD
ENDBRANCH   1   2
BRANCH   1   4
ATOM      4  C   GLY A   1      18.193  48.704  50.519  0.00  0.00    +0.226 C 
ATOM      5  O   GLY A   1      17.534  48.693  51.553  0.00  0.00    -0.287 OA
ENDBRANCH   1   4
TORSDOF 2
REMARK  Name = ../refined-set-2016/3gx0/3gx0_pocket.pdb
REMARK  238 active torsions:
REMARK  status: ('A' for Active; 'I' for Inactive)
REMARK    1  A    between atoms: _1  and  _3
REMARK    2  A    between atoms: _3  and  _4
REMARK    3  A    between atoms: _3  and  _6
REMARK    4  A    between atoms: _6  and  _7
REMARK    5  A    between atoms: _12  and  _13
REMARK    6  A    between atoms: _15  and  _17
REMARK    7  A    between atoms: _17  and  _18
REMARK    8  A    between atoms: _17  and  _20
REMARK    9  A    between atoms: _20  and  _21
REMARK   10  A    between atoms: _27  and  _29
REMARK   11  A    between atoms: _29  and  _30
REMARK   12  A    between atoms: _34  and  _35
REMARK   13  A    between atoms: _40  and  _42
REMARK   14  A    between atoms: _42  and  _43
REMARK   15  A    between atoms: _42  and  _45
REMARK   16  A    between atoms: _45  and  _46
REMARK   17  A    between atoms: _50  and  _51
REMARK   18  A    between atoms: _56  and  _58
REMARK   19  A    between atoms: _58  and  _59
REMARK   20  A    between atoms: _58  and  _61
REMARK   21  A    between atoms: _61  and  _62
REMARK   22  A    between atoms: _67  and  _69
REMARK   23  A    between atoms: _69  and  _70
REMARK   24  A    between atoms: _72  and  _74
REMARK   25  A    between atoms: _74  and  _75
REMARK   26  A    between atoms: _74  and  _77
REMARK   27  A    between atoms: _77  and  _78
REMARK   28  A    between atoms: _83  and  _85
REMARK   29  A    between atoms: _85  and  _86
REMARK   30  A    between atoms: _85  and  _88
REMARK   31  A    between atoms: _88  and  _89
REMARK   32  A    between atoms: _89  and  _90
REMARK   33  A    between atoms: _90  and  _91
REMARK   34  A    between atoms: _91  and  _92
REMARK   35  A    between atoms: _96  and  _98
REMARK   36  A    between atoms: _98  and  _99
REMARK   37  A    between atoms: _98  and  _101
REMARK   38  A    between atoms: _101  and  _102
REMARK   39  A    between atoms: _105  and  _107
REMARK   40  A    between atoms: _107  and  _108
REMARK   41  A    between atoms: _107  and  _110
REMARK   42  A    between atoms: _113  and  _115
REMARK   43  A    between atoms: _115  and  _116
REMARK   44  A    between atoms: _115  and  _118
REMARK   45  A    between atoms: _118  and  _119
REMARK   46  A    between atoms: _122  and  _124
REMARK   47  A    between atoms: _124  and  _125
REMARK   48  A    between atoms: _124  and  _127
REMARK   49  A    between atoms: _127  and  _128
REMARK   50  A    between atoms: _131  and  _133
REMARK   51  A    between atoms: _133  and  _134
REMARK   52  A    between atoms: _136  and  _138
REMARK   53  A    between atoms: _138  and  _139
REMARK   54  A    between atoms: _141  and  _143
REMARK   55  A    between atoms: _143  and  _144
REMARK   56  A    between atoms: _143  and  _146
REMARK   57  A    between atoms: _146  and  _147
REMARK   58  A    between atoms: _147  and  _148
REMARK   59  A    between atoms: _153  and  _155
REMARK   60  A    between atoms: _155  and  _156
REMARK   61  A    between atoms: _155  and  _158
REMARK   62  A    between atoms: _158  and  _159
REMARK   63  A    between atoms: _165  and  _167
REMARK   64  A    between atoms: _167  and  _168
REMARK   65  A    between atoms: _167  and  _170
REMARK   66  A    between atoms: _170  and  _171
REMARK   67  A    between atoms: _177  and  _179
REMARK   68  A    between atoms: _179  and  _180
REMARK   69  A    between atoms: _179  and  _182
REMARK   70  A    between atoms: _182  and  _183
REMARK   71  A    between atoms: _185  and  _187
REMARK   72  A    between atoms: _187  and  _188
REMARK   73  A    between atoms: _187  and  _190
REMARK   74  A    between atoms: _190  and  _191
REMARK   75  A    between atoms: _196  and  _198
REMARK   76  A    between atoms: _198  and  _199
REMARK   77  A    between atoms: _198  and  _201
REMARK   78  A    between atoms: _201  and  _202
REMARK   79  A    between atoms: _207  and  _209
REMARK   80  A    between atoms: _209  and  _210
REMARK   81  A    between atoms: _209  and  _212
REMARK   82  A    between atoms: _212  and  _213
REMARK   83  A    between atoms: _213  and  _214
REMARK   84  A    between atoms: _214  and  _215
REMARK   85  A    between atoms: _215  and  _216
REMARK   86  A    between atoms: _220  and  _222
REMARK   87  A    between atoms: _222  and  _223
REMARK   88  A    between atoms: _222  and  _225
REMARK   89  A    between atoms: _225  and  _226
REMARK   90  A    between atoms: _230  and  _231
REMARK   91  A    between atoms: _236  and  _238
REMARK   92  A    between atoms: _238  and  _239
REMARK   93  A    between atoms: _242  and  _244
REMARK   94  A    between atoms: _244  and  _245
REMARK   95  A    between atoms: _244  and  _247
REMARK   96  A    between atoms: _247  and  _248
REMARK   97  A    between atoms: _254  and  _256
REMARK   98  A    between atoms: _256  and  _257
REMARK   99  A    between atoms: _256  and  _259
REMARK  100  A    between atoms: _259  and  _260
REMARK  101  A    between atoms: _260  and  _261
REMARK  102  A    between atoms: _264  and  _266
REMARK  103  A    between atoms: _266  and  _267
REMARK  104  A    between atoms: _266  and  _269
REMARK  105  A    between atoms: _269  and  _270
REMARK  106  A    between atoms: _272  and  _274
REMARK  107  A    between atoms: _274  and  _275
REMARK  108  A    between atoms: _277  and  _279
REMARK  109  A    between atoms: _279  and  _280
REMARK  110  A    between atoms: _283  and  _285
REMARK  111  A    between atoms: _285  and  _286
REMARK  112  A    between atoms: _285  and  _288
REMARK  113  A    between atoms: _288  and  _289
REMARK  114  A    between atoms: _292  and  _294
REMARK  115  A    between atoms: _294  and  _295
REMARK  116  A    between atoms: _294  and  _297
REMARK  117  A    between atoms: _297  and  _298
REMARK  118  A    between atoms: _301  and  _303
REMARK  119  A    between atoms: _303  and  _304
REMARK  120  A    between atoms: _303  and  _306
REMARK  121  A    between atoms: _306  and  _307
REMARK  122  A    between atoms: _307  and  _308
REMARK  123  A    between atoms: _313  and  _315
REMARK  124  A    between atoms: _315  and  _316
REMARK  125  A    between atoms: _315  and  _318
REMARK  126  A    between atoms: _321  and  _323
REMARK  127  A    between atoms: _323  and  _324
REMARK  128  A    between atoms: _326  and  _328
REMARK  129  A    between atoms: _328  and  _329
REMARK  130  A    between atoms: _331  and  _333
REMARK  131  A    between atoms: _333  and  _334
REMARK  132  A    between atoms: _333  and  _336
REMARK  133  A    between atoms: _336  and  _337
REMARK  134  A    between atoms: _340  and  _342
REMARK  135  A    between atoms: _342  and  _343
REMARK  136  A    between atoms: _346  and  _347
REMARK  137  A    between atoms: _352  and  _354
REMARK  138  A    between atoms: _354  and  _355
REMARK  139  A    between atoms: _354  and  _357
REMARK  140  A    between atoms: _357  and  _358
REMARK  141  A    between atoms: _358  and  _359
REMARK  142  A    between atoms: _361  and  _363
REMARK  143  A    between atoms: _363  and  _364
REMARK  144  A    between atoms: _363  and  _366
REMARK  145  A    between atoms: _366  and  _367
REMARK  146  A    between atoms: _370  and  _372
REMARK  147  A    between atoms: _372  and  _373
REMARK  148  A    between atoms: _375  and  _377
REMARK  149  A    between atoms: _377  and  _378
REMARK  150  A    between atoms: _377  and  _380
REMARK  151  A    between atoms: _380  and  _381
REMARK  152  A    between atoms: _381  and  _382
REMARK  153  A    between atoms: _387  and  _389
REMARK  154  A    between atoms: _389  and  _390
REMARK  155  A    between atoms: _389  and  _392
REMARK  156  A    between atoms: _392  and  _393
REMARK  157  A    between atoms: _398  and  _400
REMARK  158  A    between atoms: _400  and  _401
REMARK  159  A    between atoms: _400  and  _403
REMARK  160  A    between atoms: _403  and  _404
REMARK  161  A    between atoms: _409  and  _411
REMARK  162  A    between atoms: _411  and  _412
REMARK  163  A    between atoms: _411  and  _414
REMARK  164  A    between atoms: _414  and  _415
REMARK  165  A    between atoms: _420  and  _422
REMARK  166  A    between atoms: _422  and  _423
REMARK  167  A    between atoms: _422  and  _425
REMARK  168  A    between atoms: _425  and  _426
REMARK  169  A    between atoms: _432  and  _434
REMARK  170  A    between atoms: _434  and  _435
REMARK  171  A    between atoms: _438  and  _440
REMARK  172  A    between atoms: _440  and  _441
REMARK  173  A    between atoms: _444  and  _446
REMARK  174  A    between atoms: _446  and  _447
REMARK  175  A    between atoms: _446  and  _449
REMARK  176  A    between atoms: _449  and  _450
REMARK  177  A    between atoms: _460  and  _462
REMARK  178  A    between atoms: _462  and  _463
REMARK  179  A    between atoms: _462  and  _465
REMARK  180  A    between atoms: _465  and  _466
REMARK  181  A    between atoms: _466  and  _467
REMARK  182  A    between atoms: _472  and  _474
REMARK  183  A    between atoms: _474  and  _475
REMARK  184  A    between atoms: _474  and  _477
REMARK  185  A    between atoms: _477  and  _478
REMARK  186  A    between atoms: _484  and  _486
REMARK  187  A    between atoms: _486  and  _487
REMARK  188  A    between atoms: _486  and  _489
REMARK  189  A    between atoms: _489  and  _490
REMARK  190  A    between atoms: _500  and  _502
REMARK  191  A    between atoms: _502  and  _503
REMARK  192  A    between atoms: _502  and  _505
REMARK  193  A    between atoms: _505  and  _506
REMARK  194  A    between atoms: _506  and  _507
REMARK  195  A    between atoms: _512  and  _514
REMARK  196  A    between atoms: _514  and  _515
REMARK  197  A    between atoms: _514  and  _517
REMARK  198  A    between atoms: _520  and  _522
REMARK  199  A    between atoms: _522  and  _523
REMARK  200  A    between atoms: _525  and  _527
REMARK  201  A    between atoms: _527  and  _528
REMARK  202  A    between atoms: _530  and  _532
REMARK  203  A    between atoms: _532  and  _533
REMARK  204  A    between atoms: _532  and  _535
REMARK  205  A    between atoms: _535  and  _536
REMARK  206  A    between atoms: _540  and  _541
REMARK  207  A    between atoms: _546  and  _548
REMARK  208  A    between atoms: _548  and  _549
REMARK  209  A    between atoms: _548  and  _551
REMARK  210  A    between atoms: _551  and  _552
REMARK  211  A    between atoms: _552  and  _553
REMARK  212  A    between atoms: _555  and  _557
REMARK  213  A    between atoms: _557  and  _558
REMARK  214  A    between atoms: _557  and  _560
REMARK  215  A    between atoms: _560  and  _561
REMARK  216  A    between atoms: _566  and  _567
REMARK  217  A    between atoms: _569  and  _571
REMARK  218  A    between atoms: _571  and  _572
REMARK  219  A    between atoms: _571  and  _574
REMARK  220  A    between atoms: _574  and  _575
REMARK  221  A    between atoms: _575  and  _576
REMARK  222  A    between atoms: _576  and  _577
REMARK  223  A    between atoms: _586  and  _588
REMARK  224  A    between atoms: _588  and  _589
REMARK  225  A    between atoms: _588  and  _591
REMARK  226  A    between atoms: _591  and  _592
REMARK  227  A    between atoms: _597  and  _598
REMARK  228  A    between atoms: _600  and  _602
REMARK  229  A    between atoms: _602  and  _603
REMARK  230  A    between atoms: _602  and  _605
REMARK  231  A    between atoms: _605  and  _606
REMARK  232  A    between atoms: _606  and  _607
REMARK  233  A    between atoms: _610  and  _612
REMARK  234  A    between atoms: _612  and  _613
REMARK  235  A    between atoms: _612  and  _615
REMARK  236  A    between atoms: _615  and  _616
REMARK  237  A    between atoms: _616  and  _617
REMARK  238  A    between atoms: _617  and  _618
REMARK                            x       y       z     vdW  Elec       q    Type
REMARK                         _______ _______ _______ _____ _____    ______ ____
ROOT
ATOM      1  C   GLN A   1      17.461  45.080  53.288  0.00  0.00    +0.238 C 
ATOM      2  O   GLN A   1      17.370  44.242  54.202  0.00  0.00    -0.274 OA
ATOM      3  N   PHE A   2      17.347  46.398  53.475  0.00  0.00    -0.298 N 
ATOM      4  H   PHE A   2      17.530  47.040  52.678  0.00  0.00    +0.150 HD
ENDROOT
BRANCH   1   5
ATOM      5  CA  GLN A   1      17.733  44.644  51.861  0.00  0.00    +0.145 C 
BRANCH   5   6
ATOM      6  N   GLN A   1      17.654  45.757  50.916  0.00  0.00    -0.238 NA
ATOM      7  H   GLN A   1      18.540  46.184  50.579  0.00  0.00    +0.142 HD
ENDBRANCH   5   6
BRANCH   5   8
ATOM      8  CB  GLN A   1      19.094  43.934  51.784  0.00  0.00    +0.036 C 
BRANCH   8   9
ATOM      9  CG  GLN A   1      20.319  44.773  52.220  0.00  0.00    +0.087 C 
BRANCH   9  10
ATOM     10  CD  GLN A   1      20.911  45.575  51.047  0.00  0.00    +0.219 C 
ATOM     11  NE2 GLN A   1      22.239  45.592  50.954  0.00  0.00    -0.329 N 
ATOM     12 HE21 GLN A   1      22.817  45.106  51.669  0.00  0.00    +0.145 HD
ATOM     13 HE22 GLN A   1      22.699  46.091  50.166  0.00  0.00    +0.145 HD
ATOM     14  OE1 GLN A   1      20.179  46.138  50.221  0.00  0.00    -0.275 OA
ENDBRANCH   9  10
ENDBRANCH   8   9
ENDBRANCH   5   8
ENDBRANCH   1   5
BRANCH   3  15
ATOM     15  CA  PHE A   2      16.972  46.961  54.771  0.00  0.00    +0.141 C 
BRANCH  15  16
ATOM     16  C   PHE A   2      15.507  47.458  54.837  0.00  0.00    +0.227 C 
ATOM     17  O   PHE A   2      15.070  47.920  55.889  0.00  0.00    -0.286 OA
ENDBRANCH  15  16
BRANCH  15  18
ATOM     18  CB  PHE A   2      17.962  48.056  55.187  0.00  0.00    +0.054 C 
BRANCH  18  19
ATOM     19  CG  PHE A   2      19.402  47.615  55.149  0.00  0.00    -0.020 A 
ATOM     20  CD2 PHE A   2      19.907  46.748  56.123  0.00  0.00    -0.004 A 
ATOM     21  CE2 PHE A   2      21.247  46.336  56.081  0.00  0.00    -0.000 A 
ATOM     22  CZ  PHE A   2      22.091  46.790  55.058  0.00  0.00    -0.000 A 
ATOM     23  CE1 PHE A   2      21.600  47.655  54.088  0.00  0.00    -0.000 A 
ATOM     24  CD1 PHE A   2      20.255  48.068  54.136  0.00  0.00    -0.004 A 
ENDBRANCH  18  19
ENDBRANCH  15  18
ENDBRANCH   3  15
TORSDOF 9
REMARK  Name = ../refined-set-2016/3gx0/3gx0_pocket.pdb
REMARK  238 active torsions:
REMARK  status: ('A' for Active; 'I' for Inactive)
REMARK    1  A    between atoms: _1  and  _3
REMARK    2  A    between atoms: _3  and  _4
REMARK    3  A    between atoms: _3  and  _6
REMARK    4  A    between atoms: _6  and  _7
REMARK    5  A    between atoms: _12  and  _13
REMARK    6  A    between atoms: _15  and  _17
REMARK    7  A    between atoms: _17  and  _18
REMARK    8  A    between atoms: _17  and  _20
REMARK    9  A    between atoms: _20  and  _21
REMARK   10  A    between atoms: _27  and  _29
REMARK   11  A    between atoms: _29  and  _30
REMARK   12  A    between atoms: _34  and  _35
REMARK   13  A    between atoms: _40  and  _42
REMARK   14  A    between atoms: _42  and  _43
REMARK   15  A    between atoms: _42  and  _45
REMARK   16  A    between atoms: _45  and  _46
REMARK   17  A    between atoms: _50  and  _51
REMARK   18  A    between atoms: _56  and  _58
REMARK   19  A    between atoms: _58  and  _59
REMARK   20  A    between atoms: _58  and  _61
REMARK   21  A    between atoms: _61  and  _62
REMARK   22  A    between atoms: _67  and  _69
REMARK   23  A    between atoms: _69  and  _70
REMARK   24  A    between atoms: _72  and  _74
REMARK   25  A    between atoms: _74  and  _75
REMARK   26  A    between atoms: _74  and  _77
REMARK   27  A    between atoms: _77  and  _78
REMARK   28  A    between atoms: _83  and  _85
REMARK   29  A    between atoms: _85  and  _86
REMARK   30  A    between atoms: _85  and  _88
REMARK   31  A    between atoms: _88  and  _89
REMARK   32  A    between atoms: _89  and  _90
REMARK   33  A    between atoms: _90  and  _91
REMARK   34  A    between atoms: _91  and  _92
REMARK   35  A    between atoms: _96  and  _98
REMARK   36  A    between atoms: _98  and  _99
REMARK   37  A    between atoms: _98  and  _101
REMARK   38  A    between atoms: _101  and  _102
REMARK   39  A    between atoms: _105  and  _107
REMARK   40  A    between atoms: _107  and  _108
REMARK   41  A    between atoms: _107  and  _110
REMARK   42  A    between atoms: _113  and  _115
REMARK   43  A    between atoms: _115  and  _116
REMARK   44  A    between atoms: _115  and  _118
REMARK   45  A    between atoms: _118  and  _119
REMARK   46  A    between atoms: _122  and  _124
REMARK   47  A    between atoms: _124  and  _125
REMARK   48  A    between atoms: _124  and  _127
REMARK   49  A    between atoms: _127  and  _128
REMARK   50  A    between atoms: _131  and  _133
REMARK   51  A    between atoms: _133  and  _134
REMARK   52  A    between atoms: _136  and  _138
REMARK   53  A    between atoms: _138  and  _139
REMARK   54  A    between atoms: _141  and  _143
REMARK   55  A    between atoms: _143  and  _144
REMARK   56  A    between atoms: _143  and  _146
REMARK   57  A    between atoms: _146  and  _147
REMARK   58  A    between atoms: _147  and  _148
REMARK   59  A    between atoms: _153  and  _155
REMARK   60  A    between atoms: _155  and  _156
REMARK   61  A    between atoms: _155  and  _158
REMARK   62  A    between atoms: _158  and  _159
REMARK   63  A    between atoms: _165  and  _167
REMARK   64  A    between atoms: _167  and  _168
REMARK   65  A    between atoms: _167  and  _170
REMARK   66  A    between atoms: _170  and  _171
REMARK   67  A    between atoms: _177  and  _179
REMARK   68  A    between atoms: _179  and  _180
REMARK   69  A    between atoms: _179  and  _182
REMARK   70  A    between atoms: _182  and  _183
REMARK   71  A    between atoms: _185  and  _187
REMARK   72  A    between atoms: _187  and  _188
REMARK   73  A    between atoms: _187  and  _190
REMARK   74  A    between atoms: _190  and  _191
REMARK   75  A    between atoms: _196  and  _198
REMARK   76  A    between atoms: _198  and  _199
REMARK   77  A    between atoms: _198  and  _201
REMARK   78  A    between atoms: _201  and  _202
REMARK   79  A    between atoms: _207  and  _209
REMARK   80  A    between atoms: _209  and  _210
REMARK   81  A    between atoms: _209  and  _212
REMARK   82  A    between atoms: _212  and  _213
REMARK   83  A    between atoms: _213  and  _214
REMARK   84  A    between atoms: _214  and  _215
REMARK   85  A    between atoms: _215  and  _216
REMARK   86  A    between atoms: _220  and  _222
REMARK   87  A    between atoms: _222  and  _223
REMARK   88  A    between atoms: _222  and  _225
REMARK   89  A    between atoms: _225  and  _226
REMARK   90  A    between atoms: _230  and  _231
REMARK   91  A    between atoms: _236  and  _238
REMARK   92  A    between atoms: _238  and  _239
REMARK   93  A    between atoms: _242  and  _244
REMARK   94  A    between atoms: _244  and  _245
REMARK   95  A    between atoms: _244  and  _247
REMARK   96  A    between atoms: _247  and  _248
REMARK   97  A    between atoms: _254  and  _256
REMARK   98  A    between atoms: _256  and  _257
REMARK   99  A    between atoms: _256  and  _259
REMARK  100  A    between atoms: _259  and  _260
REMARK  101  A    between atoms: _260  and  _261
REMARK  102  A    between atoms: _264  and  _266
REMARK  103  A    between atoms: _266  and  _267
REMARK  104  A    between atoms: _266  and  _269
REMARK  105  A    between atoms: _269  and  _270
REMARK  106  A    between atoms: _272  and  _274
REMARK  107  A    between atoms: _274  and  _275
REMARK  108  A    between atoms: _277  and  _279
REMARK  109  A    between atoms: _279  and  _280
REMARK  110  A    between atoms: _283  and  _285
REMARK  111  A    between atoms: _285  and  _286
REMARK  112  A    between atoms: _285  and  _288
REMARK  113  A    between atoms: _288  and  _289
REMARK  114  A    between atoms: _292  and  _294
REMARK  115  A    between atoms: _294  and  _295
REMARK  116  A    between atoms: _294  and  _297
REMARK  117  A    between atoms: _297  and  _298
REMARK  118  A    between atoms: _301  and  _303
REMARK  119  A    between atoms: _303  and  _304
REMARK  120  A    between atoms: _303  and  _306
REMARK  121  A    between atoms: _306  and  _307
REMARK  122  A    between atoms: _307  and  _308
REMARK  123  A    between atoms: _313  and  _315
REMARK  124  A    between atoms: _315  and  _316
REMARK  125  A    between atoms: _315  and  _318
REMARK  126  A    between atoms: _321  and  _323
REMARK  127  A    between atoms: _323  and  _324
REMARK  128  A    between atoms: _326  and  _328
REMARK  129  A    between atoms: _328  and  _329
REMARK  130  A    between atoms: _331  and  _333
REMARK  131  A    between atoms: _333  and  _334
REMARK  132  A    between atoms: _333  and  _336
REMARK  133  A    between atoms: _336  and  _337
REMARK  134  A    between atoms: _340  and  _342
REMARK  135  A    between atoms: _342  and  _343
REMARK  136  A    between atoms: _346  and  _347
REMARK  137  A    between atoms: _352  and  _354
REMARK  138  A    between atoms: _354  and  _355
REMARK  139  A    between atoms: _354  and  _357
REMARK  140  A    between atoms: _357  and  _358
REMARK  141  A    between atoms: _358  and  _359
REMARK  142  A    between atoms: _361  and  _363
REMARK  143  A    between atoms: _363  and  _364
REMARK  144  A    between atoms: _363  and  _366
REMARK  145  A    between atoms: _366  and  _367
REMARK  146  A    between atoms: _370  and  _372
REMARK  147  A    between atoms: _372  and  _373
REMARK  148  A    between atoms: _375  and  _377
REMARK  149  A    between atoms: _377  and  _378
REMARK  150  A    between atoms: _377  and  _380
REMARK  151  A    between atoms: _380  and  _381
REMARK  152  A    between atoms: _381  and  _382
REMARK  153  A    between atoms: _387  and  _389
REMARK  154  A    between atoms: _389  and  _390
REMARK  155  A    between atoms: _389  and  _392
REMARK  156  A    between atoms: _392  and  _393
REMARK  157  A    between atoms: _398  and  _400
REMARK  158  A    between atoms: _400  and  _401
REMARK  159  A    between atoms: _400  and  _403
REMARK  160  A    between atoms: _403  and  _404
REMARK  161  A    between atoms: _409  and  _411
REMARK  162  A    between atoms: _411  and  _412
REMARK  163  A    between atoms: _411  and  _414
REMARK  164  A    between atoms: _414  and  _415
REMARK  165  A    between atoms: _420  and  _422
REMARK  166  A    between atoms: _422  and  _423
REMARK  167  A    between atoms: _422  and  _425
REMARK  168  A    between atoms: _425  and  _426
REMARK  169  A    between atoms: _432  and  _434
REMARK  170  A    between atoms: _434  and  _435
REMARK  171  A    between atoms: _438  and  _440
REMARK  172  A    between atoms: _440  and  _441
REMARK  173  A    between atoms: _444  and  _446
REMARK  174  A    between atoms: _446  and  _447
REMARK  175  A    between atoms: _446  and  _449
REMARK  176  A    between atoms: _449  and  _450
REMARK  177  A    between atoms: _460  and  _462
REMARK  178  A    between atoms: _462  and  _463
REMARK  179  A    between atoms: _462  and  _465
REMARK  180  A    between atoms: _465  and  _466
REMARK  181  A    between atoms: _466  and  _467
REMARK  182  A    between atoms: _472  and  _474
REMARK  183  A    between atoms: _474  and  _475
REMARK  184  A    between atoms: _474  and  _477
REMARK  185  A    between atoms: _477  and  _478
REMARK  186  A    between atoms: _484  and  _486
REMARK  187  A    between atoms: _486  and  _487
REMARK  188  A    between atoms: _486  and  _489
REMARK  189  A    between atoms: _489  and  _490
REMARK  190  A    between atoms: _500  and  _502
REMARK  191  A    between atoms: _502  and  _503
REMARK  192  A    between atoms: _502  and  _505
REMARK  193  A    between atoms: _505  and  _506
REMARK  194  A    between atoms: _506  and  _507
REMARK  195  A    between atoms: _512  and  _514
REMARK  196  A    between atoms: _514  and  _515
REMARK  197  A    between atoms: _514  and  _517
REMARK  198  A    between atoms: _520  and  _522
REMARK  199  A    between atoms: _522  and  _523
REMARK  200  A    between atoms: _525  and  _527
REMARK  201  A    between atoms: _527  and  _528
REMARK  202  A    between atoms: _530  and  _532
REMARK  203  A    between atoms: _532  and  _533
REMARK  204  A    between atoms: _532  and  _535
REMARK  205  A    between atoms: _535  and  _536
REMARK  206  A    between atoms: _540  and  _541
REMARK  207  A    between atoms: _546  and  _548
REMARK  208  A    between atoms: _548  and  _549
REMARK  209  A    between atoms: _548  and  _551
REMARK  210  A    between atoms: _551  and  _552
REMARK  211  A    between atoms: _552  and  _553
REMARK  212  A    between atoms: _555  and  _557
REMARK  213  A    between atoms: _557  and  _558
REMARK  214  A    between atoms: _557  and  _560
REMARK  215  A    between atoms: _560  and  _561
REMARK  216  A    between atoms: _566  and  _567
REMARK  217  A    between atoms: _569  and  _571
REMARK  218  A    between atoms: _571  and  _572
REMARK  219  A    between atoms: _571  and  _574
REMARK  220  A    between atoms: _574  and  _575
REMARK  221  A    between atoms: _575  and  _576
REMARK  222  A    between atoms: _576  and  _577
REMARK  223  A    between atoms: _586  and  _588
REMARK  224  A    between atoms: _588  and  _589
REMARK  225  A    between atoms: _588  and  _591
REMARK  226  A    between atoms: _591  and  _592
REMARK  227  A    between atoms: _597  and  _598
REMARK  228  A    between atoms: _600  and  _602
REMARK  229  A    between atoms: _602  and  _603
REMARK  230  A    between atoms: _602  and  _605
REMARK  231  A    between atoms: _605  and  _606
REMARK  232  A    between atoms: _606  and  _607
REMARK  233  A    between atoms: _610  and  _612
REMARK  234  A    between atoms: _612  and  _613
REMARK  235  A    between atoms: _612  and  _615
REMARK  236  A    between atoms: _615  and  _616
REMARK  237  A    between atoms: _616  and  _617
REMARK  238  A    between atoms: _617  and  _618
REMARK                            x       y       z     vdW  Elec       q    Type
REMARK                         _______ _______ _______ _____ _____    ______ ____
ROOT
ATOM      1  CB  PHE A   1      13.097  43.033  52.469  0.00  0.00    +0.051 C 
ENDROOT
BRANCH   1   2
ATOM      2  CG  PHE A   1      14.139  42.018  52.084  0.00  0.00    -0.020 A 
ATOM      3  CD2 PHE A   1      15.426  42.081  52.625  0.00  0.00    -0.004 A 
ATOM      4  CE2 PHE A   1      16.391  41.139  52.289  0.00  0.00    -0.000 A 
ATOM      5  CZ  PHE A   1      16.067  40.112  51.413  0.00  0.00    -0.000 A 
ATOM      6  CE1 PHE A   1      14.768  40.021  50.875  0.00  0.00    -0.000 A 
ATOM      7  CD1 PHE A   1      13.816  40.963  51.221  0.00  0.00    -0.004 A 
ENDBRANCH   1   2
BRANCH   1   8
ATOM      8  CA  PHE A   1      12.046  42.474  53.423  0.00  0.00    +0.137 C 
BRANCH   8   9
ATOM      9  N   PHE A   1      11.123  43.473  53.895  0.00  0.00    -0.239 NA
ATOM     10  H   PHE A   1      11.445  44.450  54.046  0.00  0.00    +0.142 HD
ENDBRANCH   8   9
BRANCH   8  11
ATOM     11  C   PHE A   1      12.697  41.814  54.622  0.00  0.00    +0.224 C 
ATOM     12  O   PHE A   1      12.899  40.604  54.620  0.00  0.00    -0.287 OA
ENDBRANCH   8  11
ENDBRANCH   1   8
TORSDOF 4
REMARK  Name = ../refined-set-2016/3gx0/3gx0_pocket.pdb
REMARK  238 active torsions:
REMARK  status: ('A' for Active; 'I' for Inactive)
REMARK    1  A    between atoms: _1  and  _3
REMARK    2  A    between atoms: _3  and  _4
REMARK    3  A    between atoms: _3  and  _6
REMARK    4  A    between atoms: _6  and  _7
REMARK    5  A    between atoms: _12  and  _13
REMARK    6  A    between atoms: _15  and  _17
REMARK    7  A    between atoms: _17  and  _18
REMARK    8  A    between atoms: _17  and  _20
REMARK    9  A    between atoms: _20  and  _21
REMARK   10  A    between atoms: _27  and  _29
REMARK   11  A    between atoms: _29  and  _30
REMARK   12  A    between atoms: _34  and  _35
REMARK   13  A    between atoms: _40  and  _42
REMARK   14  A    between atoms: _42  and  _43
REMARK   15  A    between atoms: _42  and  _45
REMARK   16  A    between atoms: _45  and  _46
REMARK   17  A    between atoms: _50  and  _51
REMARK   18  A    between atoms: _56  and  _58
REMARK   19  A    between atoms: _58  and  _59
REMARK   20  A    between atoms: _58  and  _61
REMARK   21  A    between atoms: _61  and  _62
REMARK   22  A    between atoms: _67  and  _69
REMARK   23  A    between atoms: _69  and  _70
REMARK   24  A    between atoms: _72  and  _74
REMARK   25  A    between atoms: _74  and  _75
REMARK   26  A    between atoms: _74  and  _77
REMARK   27  A    between atoms: _77  and  _78
REMARK   28  A    between atoms: _83  and  _85
REMARK   29  A    between atoms: _85  and  _86
REMARK   30  A    between atoms: _85  and  _88
REMARK   31  A    between atoms: _88  and  _89
REMARK   32  A    between atoms: _89  and  _90
REMARK   33  A    between atoms: _90  and  _91
REMARK   34  A    between atoms: _91  and  _92
REMARK   35  A    between atoms: _96  and  _98
REMARK   36  A    between atoms: _98  and  _99
REMARK   37  A    between atoms: _98  and  _101
REMARK   38  A    between atoms: _101  and  _102
REMARK   39  A    between atoms: _105  and  _107
REMARK   40  A    between atoms: _107  and  _108
REMARK   41  A    between atoms: _107  and  _110
REMARK   42  A    between atoms: _113  and  _115
REMARK   43  A    between atoms: _115  and  _116
REMARK   44  A    between atoms: _115  and  _118
REMARK   45  A    between atoms: _118  and  _119
REMARK   46  A    between atoms: _122  and  _124
REMARK   47  A    between atoms: _124  and  _125
REMARK   48  A    between atoms: _124  and  _127
REMARK   49  A    between atoms: _127  and  _128
REMARK   50  A    between atoms: _131  and  _133
REMARK   51  A    between atoms: _133  and  _134
REMARK   52  A    between atoms: _136  and  _138
REMARK   53  A    between atoms: _138  and  _139
REMARK   54  A    between atoms: _141  and  _143
REMARK   55  A    between atoms: _143  and  _144
REMARK   56  A    between atoms: _143  and  _146
REMARK   57  A    between atoms: _146  and  _147
REMARK   58  A    between atoms: _147  and  _148
REMARK   59  A    between atoms: _153  and  _155
REMARK   60  A    between atoms: _155  and  _156
REMARK   61  A    between atoms: _155  and  _158
REMARK   62  A    between atoms: _158  and  _159
REMARK   63  A    between atoms: _165  and  _167
REMARK   64  A    between atoms: _167  and  _168
REMARK   65  A    between atoms: _167  and  _170
REMARK   66  A    between atoms: _170  and  _171
REMARK   67  A    between atoms: _177  and  _179
REMARK   68  A    between atoms: _179  and  _180
REMARK   69  A    between atoms: _179  and  _182
REMARK   70  A    between atoms: _182  and  _183
REMARK   71  A    between atoms: _185  and  _187
REMARK   72  A    between atoms: _187  and  _188
REMARK   73  A    between atoms: _187  and  _190
REMARK   74  A    between atoms: _190  and  _191
REMARK   75  A    between atoms: _196  and  _198
REMARK   76  A    between atoms: _198  and  _199
REMARK   77  A    between atoms: _198  and  _201
REMARK   78  A    between atoms: _201  and  _202
REMARK   79  A    between atoms: _207  and  _209
REMARK   80  A    between atoms: _209  and  _210
REMARK   81  A    between atoms: _209  and  _212
REMARK   82  A    between atoms: _212  and  _213
REMARK   83  A    between atoms: _213  and  _214
REMARK   84  A    between atoms: _214  and  _215
REMARK   85  A    between atoms: _215  and  _216
REMARK   86  A    between atoms: _220  and  _222
REMARK   87  A    between atoms: _222  and  _223
REMARK   88  A    between atoms: _222  and  _225
REMARK   89  A    between atoms: _225  and  _226
REMARK   90  A    between atoms: _230  and  _231
REMARK   91  A    between atoms: _236  and  _238
REMARK   92  A    between atoms: _238  and  _239
REMARK   93  A    between atoms: _242  and  _244
REMARK   94  A    between atoms: _244  and  _245
REMARK   95  A    between atoms: _244  and  _247
REMARK   96  A    between atoms: _247  and  _248
REMARK   97  A    between atoms: _254  and  _256
REMARK   98  A    between atoms: _256  and  _257
REMARK   99  A    between atoms: _256  and  _259
REMARK  100  A    between atoms: _259  and  _260
REMARK  101  A    between atoms: _260  and  _261
REMARK  102  A    between atoms: _264  and  _266
REMARK  103  A    between atoms: _266  and  _267
REMARK  104  A    between atoms: _266  and  _269
REMARK  105  A    between atoms: _269  and  _270
REMARK  106  A    between atoms: _272  and  _274
REMARK  107  A    between atoms: _274  and  _275
REMARK  108  A    between atoms: _277  and  _279
REMARK  109  A    between atoms: _279  and  _280
REMARK  110  A    between atoms: _283  and  _285
REMARK  111  A    between atoms: _285  and  _286
REMARK  112  A    between atoms: _285  and  _288
REMARK  113  A    between atoms: _288  and  _289
REMARK  114  A    between atoms: _292  and  _294
REMARK  115  A    between atoms: _294  and  _295
REMARK  116  A    between atoms: _294  and  _297
REMARK  117  A    between atoms: _297  and  _298
REMARK  118  A    between atoms: _301  and  _303
REMARK  119  A    between atoms: _303  and  _304
REMARK  120  A    between atoms: _303  and  _306
REMARK  121  A    between atoms: _306  and  _307
REMARK  122  A    between atoms: _307  and  _308
REMARK  123  A    between atoms: _313  and  _315
REMARK  124  A    between atoms: _315  and  _316
REMARK  125  A    between atoms: _315  and  _318
REMARK  126  A    between atoms: _321  and  _323
REMARK  127  A    between atoms: _323  and  _324
REMARK  128  A    between atoms: _326  and  _328
REMARK  129  A    between atoms: _328  and  _329
REMARK  130  A    between atoms: _331  and  _333
REMARK  131  A    between atoms: _333  and  _334
REMARK  132  A    between atoms: _333  and  _336
REMARK  133  A    between atoms: _336  and  _337
REMARK  134  A    between atoms: _340  and  _342
REMARK  135  A    between atoms: _342  and  _343
REMARK  136  A    between atoms: _346  and  _347
REMARK  137  A    between atoms: _352  and  _354
REMARK  138  A    between atoms: _354  and  _355
REMARK  139  A    between atoms: _354  and  _357
REMARK  140  A    between atoms: _357  and  _358
REMARK  141  A    between atoms: _358  and  _359
REMARK  142  A    between atoms: _361  and  _363
REMARK  143  A    between atoms: _363  and  _364
REMARK  144  A    between atoms: _363  and  _366
REMARK  145  A    between atoms: _366  and  _367
REMARK  146  A    between atoms: _370  and  _372
REMARK  147  A    between atoms: _372  and  _373
REMARK  148  A    between atoms: _375  and  _377
REMARK  149  A    between atoms: _377  and  _378
REMARK  150  A    between atoms: _377  and  _380
REMARK  151  A    between atoms: _380  and  _381
REMARK  152  A    between atoms: _381  and  _382
REMARK  153  A    between atoms: _387  and  _389
REMARK  154  A    between atoms: _389  and  _390
REMARK  155  A    between atoms: _389  and  _392
REMARK  156  A    between atoms: _392  and  _393
REMARK  157  A    between atoms: _398  and  _400
REMARK  158  A    between atoms: _400  and  _401
REMARK  159  A    between atoms: _400  and  _403
REMARK  160  A    between atoms: _403  and  _404
REMARK  161  A    between atoms: _409  and  _411
REMARK  162  A    between atoms: _411  and  _412
REMARK  163  A    between atoms: _411  and  _414
REMARK  164  A    between atoms: _414  and  _415
REMARK  165  A    between atoms: _420  and  _422
REMARK  166  A    between atoms: _422  and  _423
REMARK  167  A    between atoms: _422  and  _425
REMARK  168  A    between atoms: _425  and  _426
REMARK  169  A    between atoms: _432  and  _434
REMARK  170  A    between atoms: _434  and  _435
REMARK  171  A    between atoms: _438  and  _440
REMARK  172  A    between atoms: _440  and  _441
REMARK  173  A    between atoms: _444  and  _446
REMARK  174  A    between atoms: _446  and  _447
REMARK  175  A    between atoms: _446  and  _449
REMARK  176  A    between atoms: _449  and  _450
REMARK  177  A    between atoms: _460  and  _462
REMARK  178  A    between atoms: _462  and  _463
REMARK  179  A    between atoms: _462  and  _465
REMARK  180  A    between atoms: _465  and  _466
REMARK  181  A    between atoms: _466  and  _467
REMARK  182  A    between atoms: _472  and  _474
REMARK  183  A    between atoms: _474  and  _475
REMARK  184  A    between atoms: _474  and  _477
REMARK  185  A    between atoms: _477  and  _478
REMARK  186  A    between atoms: _484  and  _486
REMARK  187  A    between atoms: _486  and  _487
REMARK  188  A    between atoms: _486  and  _489
REMARK  189  A    between atoms: _489  and  _490
REMARK  190  A    between atoms: _500  and  _502
REMARK  191  A    between atoms: _502  and  _503
REMARK  192  A    between atoms: _502  and  _505
REMARK  193  A    between atoms: _505  and  _506
REMARK  194  A    between atoms: _506  and  _507
REMARK  195  A    between atoms: _512  and  _514
REMARK  196  A    between atoms: _514  and  _515
REMARK  197  A    between atoms: _514  and  _517
REMARK  198  A    between atoms: _520  and  _522
REMARK  199  A    between atoms: _522  and  _523
REMARK  200  A    between atoms: _525  and  _527
REMARK  201  A    between atoms: _527  and  _528
REMARK  202  A    between atoms: _530  and  _532
REMARK  203  A    between atoms: _532  and  _533
REMARK  204  A    between atoms: _532  and  _535
REMARK  205  A    between atoms: _535  and  _536
REMARK  206  A    between atoms: _540  and  _541
REMARK  207  A    between atoms: _546  and  _548
REMARK  208  A    between atoms: _548  and  _549
REMARK  209  A    between atoms: _548  and  _551
REMARK  210  A    between atoms: _551  and  _552
REMARK  211  A    between atoms: _552  and  _553
REMARK  212  A    between atoms: _555  and  _557
REMARK  213  A    between atoms: _557  and  _558
REMARK  214  A    between atoms: _557  and  _560
REMARK  215  A    between atoms: _560  and  _561
REMARK  216  A    between atoms: _566  and  _567
REMARK  217  A    between atoms: _569  and  _571
REMARK  218  A    between atoms: _571  and  _572
REMARK  219  A    between atoms: _571  and  _574
REMARK  220  A    between atoms: _574  and  _575
REMARK  221  A    between atoms: _575  and  _576
REMARK  222  A    between atoms: _576  and  _577
REMARK  223  A    between atoms: _586  and  _588
REMARK  224  A    between atoms: _588  and  _589
REMARK  225  A    between atoms: _588  and  _591
REMARK  226  A    between atoms: _591  and  _592
REMARK  227  A    between atoms: _597  and  _598
REMARK  228  A    between atoms: _600  and  _602
REMARK  229  A    between atoms: _602  and  _603
REMARK  230  A    between atoms: _602  and  _605
REMARK  231  A    between atoms: _605  and  _606
REMARK  232  A    between atoms: _606  and  _607
REMARK  233  A    between atoms: _610  and  _612
REMARK  234  A    between atoms: _612  and  _613
REMARK  235  A    between atoms: _612  and  _615
REMARK  236  A    between atoms: _615  and  _616
REMARK  237  A    between atoms: _616  and  _617
REMARK  238  A    between atoms: _617  and  _618
REMARK                            x       y       z     vdW  Elec       q    Type
REMARK                         _______ _______ _______ _____ _____    ______ ____
ROOT
ATOM      1  CA  SER A   1      14.952  37.889  55.590  0.00  0.00    +0.163 C 
ENDROOT
BRANCH   1   2
ATOM      2  N   SER A   1      13.543  38.184  55.532  0.00  0.00    -0.237 NA
ATOM      3  H   SER A   1      13.251  39.181  55.572  0.00  0.00    +0.142 HD
ENDBRANCH   1   2
BRANCH   1   4
ATOM      4  CB  SER A   1      15.657  38.799  56.603  0.00  0.00    +0.227 C 
ATOM      5  OG  SER A   1      16.223  39.832  56.210  0.00  0.00    -0.287 OA
ENDBRANCH   1   4
BRANCH   1   6
ATOM      6  C   SER A   1      15.547  38.044  54.176  0.00  0.00    +0.162 C 
BRANCH   6   7
ATOM      7  O   SER A   1      16.948  37.932  54.183  0.00  0.00    -0.380 OA
ATOM      8  H   SER A   1      17.331  38.638  54.761  0.00  0.00    +0.211 HD
ENDBRANCH   6   7
ENDBRANCH   1   6
TORSDOF 4
REMARK  Name = ../refined-set-2016/3gx0/3gx0_pocket.pdb
REMARK  238 active torsions:
REMARK  status: ('A' for Active; 'I' for Inactive)
REMARK    1  A    between atoms: _1  and  _3
REMARK    2  A    between atoms: _3  and  _4
REMARK    3  A    between atoms: _3  and  _6
REMARK    4  A    between atoms: _6  and  _7
REMARK    5  A    between atoms: _12  and  _13
REMARK    6  A    between atoms: _15  and  _17
REMARK    7  A    between atoms: _17  and  _18
REMARK    8  A    between atoms: _17  and  _20
REMARK    9  A    between atoms: _20  and  _21
REMARK   10  A    between atoms: _27  and  _29
REMARK   11  A    between atoms: _29  and  _30
REMARK   12  A    between atoms: _34  and  _35
REMARK   13  A    between atoms: _40  and  _42
REMARK   14  A    between atoms: _42  and  _43
REMARK   15  A    between atoms: _42  and  _45
REMARK   16  A    between atoms: _45  and  _46
REMARK   17  A    between atoms: _50  and  _51
REMARK   18  A    between atoms: _56  and  _58
REMARK   19  A    between atoms: _58  and  _59
REMARK   20  A    between atoms: _58  and  _61
REMARK   21  A    between atoms: _61  and  _62
REMARK   22  A    between atoms: _67  and  _69
REMARK   23  A    between atoms: _69  and  _70
REMARK   24  A    between atoms: _72  and  _74
REMARK   25  A    between atoms: _74  and  _75
REMARK   26  A    between atoms: _74  and  _77
REMARK   27  A    between atoms: _77  and  _78
REMARK   28  A    between atoms: _83  and  _85
REMARK   29  A    between atoms: _85  and  _86
REMARK   30  A    between atoms: _85  and  _88
REMARK   31  A    between atoms: _88  and  _89
REMARK   32  A    between atoms: _89  and  _90
REMARK   33  A    between atoms: _90  and  _91
REMARK   34  A    between atoms: _91  and  _92
REMARK   35  A    between atoms: _96  and  _98
REMARK   36  A    between atoms: _98  and  _99
REMARK   37  A    between atoms: _98  and  _101
REMARK   38  A    between atoms: _101  and  _102
REMARK   39  A    between atoms: _105  and  _107
REMARK   40  A    between atoms: _107  and  _108
REMARK   41  A    between atoms: _107  and  _110
REMARK   42  A    between atoms: _113  and  _115
REMARK   43  A    between atoms: _115  and  _116
REMARK   44  A    between atoms: _115  and  _118
REMARK   45  A    between atoms: _118  and  _119
REMARK   46  A    between atoms: _122  and  _124
REMARK   47  A    between atoms: _124  and  _125
REMARK   48  A    between atoms: _124  and  _127
REMARK   49  A    between atoms: _127  and  _128
REMARK   50  A    between atoms: _131  and  _133
REMARK   51  A    between atoms: _133  and  _134
REMARK   52  A    between atoms: _136  and  _138
REMARK   53  A    between atoms: _138  and  _139
REMARK   54  A    between atoms: _141  and  _143
REMARK   55  A    between atoms: _143  and  _144
REMARK   56  A    between atoms: _143  and  _146
REMARK   57  A    between atoms: _146  and  _147
REMARK   58  A    between atoms: _147  and  _148
REMARK   59  A    between atoms: _153  and  _155
REMARK   60  A    between atoms: _155  and  _156
REMARK   61  A    between atoms: _155  and  _158
REMARK   62  A    between atoms: _158  and  _159
REMARK   63  A    between atoms: _165  and  _167
REMARK   64  A    between atoms: _167  and  _168
REMARK   65  A    between atoms: _167  and  _170
REMARK   66  A    between atoms: _170  and  _171
REMARK   67  A    between atoms: _177  and  _179
REMARK   68  A    between atoms: _179  and  _180
REMARK   69  A    between atoms: _179  and  _182
REMARK   70  A    between atoms: _182  and  _183
REMARK   71  A    between atoms: _185  and  _187
REMARK   72  A    between atoms: _187  and  _188
REMARK   73  A    between atoms: _187  and  _190
REMARK   74  A    between atoms: _190  and  _191
REMARK   75  A    between atoms: _196  and  _198
REMARK   76  A    between atoms: _198  and  _199
REMARK   77  A    between atoms: _198  and  _201
REMARK   78  A    between atoms: _201  and  _202
REMARK   79  A    between atoms: _207  and  _209
REMARK   80  A    between atoms: _209  and  _210
REMARK   81  A    between atoms: _209  and  _212
REMARK   82  A    between atoms: _212  and  _213
REMARK   83  A    between atoms: _213  and  _214
REMARK   84  A    between atoms: _214  and  _215
REMARK   85  A    between atoms: _215  and  _216
REMARK   86  A    between atoms: _220  and  _222
REMARK   87  A    between atoms: _222  and  _223
REMARK   88  A    between atoms: _222  and  _225
REMARK   89  A    between atoms: _225  and  _226
REMARK   90  A    between atoms: _230  and  _231
REMARK   91  A    between atoms: _236  and  _238
REMARK   92  A    between atoms: _238  and  _239
REMARK   93  A    between atoms: _242  and  _244
REMARK   94  A    between atoms: _244  and  _245
REMARK   95  A    between atoms: _244  and  _247
REMARK   96  A    between atoms: _247  and  _248
REMARK   97  A    between atoms: _254  and  _256
REMARK   98  A    between atoms: _256  and  _257
REMARK   99  A    between atoms: _256  and  _259
REMARK  100  A    between atoms: _259  and  _260
REMARK  101  A    between atoms: _260  and  _261
REMARK  102  A    between atoms: _264  and  _266
REMARK  103  A    between atoms: _266  and  _267
REMARK  104  A    between atoms: _266  and  _269
REMARK  105  A    between atoms: _269  and  _270
REMARK  106  A    between atoms: _272  and  _274
REMARK  107  A    between atoms: _274  and  _275
REMARK  108  A    between atoms: _277  and  _279
REMARK  109  A    between atoms: _279  and  _280
REMARK  110  A    between atoms: _283  and  _285
REMARK  111  A    between atoms: _285  and  _286
REMARK  112  A    between atoms: _285  and  _288
REMARK  113  A    between atoms: _288  and  _289
REMARK  114  A    between atoms: _292  and  _294
REMARK  115  A    between atoms: _294  and  _295
REMARK  116  A    between atoms: _294  and  _297
REMARK  117  A    between atoms: _297  and  _298
REMARK  118  A    between atoms: _301  and  _303
REMARK  119  A    between atoms: _303  and  _304
REMARK  120  A    between atoms: _303  and  _306
REMARK  121  A    between atoms: _306  and  _307
REMARK  122  A    between atoms: _307  and  _308
REMARK  123  A    between atoms: _313  and  _315
REMARK  124  A    between atoms: _315  and  _316
REMARK  125  A    between atoms: _315  and  _318
REMARK  126  A    between atoms: _321  and  _323
REMARK  127  A    between atoms: _323  and  _324
REMARK  128  A    between atoms: _326  and  _328
REMARK  129  A    between atoms: _328  and  _329
REMARK  130  A    between atoms: _331  and  _333
REMARK  131  A    between atoms: _333  and  _334
REMARK  132  A    between atoms: _333  and  _336
REMARK  133  A    between atoms: _336  and  _337
REMARK  134  A    between atoms: _340  and  _342
REMARK  135  A    between atoms: _342  and  _343
REMARK  136  A    between atoms: _346  and  _347
REMARK  137  A    between atoms: _352  and  _354
REMARK  138  A    between atoms: _354  and  _355
REMARK  139  A    between atoms: _354  and  _357
REMARK  140  A    between atoms: _357  and  _358
REMARK  141  A    between atoms: _358  and  _359
REMARK  142  A    between atoms: _361  and  _363
REMARK  143  A    between atoms: _363  and  _364
REMARK  144  A    between atoms: _363  and  _366
REMARK  145  A    between atoms: _366  and  _367
REMARK  146  A    between atoms: _370  and  _372
REMARK  147  A    between atoms: _372  and  _373
REMARK  148  A    between atoms: _375  and  _377
REMARK  149  A    between atoms: _377  and  _378
REMARK  150  A    between atoms: _377  and  _380
REMARK  151  A    between atoms: _380  and  _381
REMARK  152  A    between atoms: _381  and  _382
REMARK  153  A    between atoms: _387  and  _389
REMARK  154  A    between atoms: _389  and  _390
REMARK  155  A    between atoms: _389  and  _392
REMARK  156  A    between atoms: _392  and  _393
REMARK  157  A    between atoms: _398  and  _400
REMARK  158  A    between atoms: _400  and  _401
REMARK  159  A    between atoms: _400  and  _403
REMARK  160  A    between atoms: _403  and  _404
REMARK  161  A    between atoms: _409  and  _411
REMARK  162  A    between atoms: _411  and  _412
REMARK  163  A    between atoms: _411  and  _414
REMARK  164  A    between atoms: _414  and  _415
REMARK  165  A    between atoms: _420  and  _422
REMARK  166  A    between atoms: _422  and  _423
REMARK  167  A    between atoms: _422  and  _425
REMARK  168  A    between atoms: _425  and  _426
REMARK  169  A    between atoms: _432  and  _434
REMARK  170  A    between atoms: _434  and  _435
REMARK  171  A    between atoms: _438  and  _440
REMARK  172  A    between atoms: _440  and  _441
REMARK  173  A    between atoms: _444  and  _446
REMARK  174  A    between atoms: _446  and  _447
REMARK  175  A    between atoms: _446  and  _449
REMARK  176  A    between atoms: _449  and  _450
REMARK  177  A    between atoms: _460  and  _462
REMARK  178  A    between atoms: _462  and  _463
REMARK  179  A    between atoms: _462  and  _465
REMARK  180  A    between atoms: _465  and  _466
REMARK  181  A    between atoms: _466  and  _467
REMARK  182  A    between atoms: _472  and  _474
REMARK  183  A    between atoms: _474  and  _475
REMARK  184  A    between atoms: _474  and  _477
REMARK  185  A    between atoms: _477  and  _478
REMARK  186  A    between atoms: _484  and  _486
REMARK  187  A    between atoms: _486  and  _487
REMARK  188  A    between atoms: _486  and  _489
REMARK  189  A    between atoms: _489  and  _490
REMARK  190  A    between atoms: _500  and  _502
REMARK  191  A    between atoms: _502  and  _503
REMARK  192  A    between atoms: _502  and  _505
REMARK  193  A    between atoms: _505  and  _506
REMARK  194  A    between atoms: _506  and  _507
REMARK  195  A    between atoms: _512  and  _514
REMARK  196  A    between atoms: _514  and  _515
REMARK  197  A    between atoms: _514  and  _517
REMARK  198  A    between atoms: _520  and  _522
REMARK  199  A    between atoms: _522  and  _523
REMARK  200  A    between atoms: _525  and  _527
REMARK  201  A    between atoms: _527  and  _528
REMARK  202  A    between atoms: _530  and  _532
REMARK  203  A    between atoms: _532  and  _533
REMARK  204  A    between atoms: _532  and  _535
REMARK  205  A    between atoms: _535  and  _536
REMARK  206  A    between atoms: _540  and  _541
REMARK  207  A    between atoms: _546  and  _548
REMARK  208  A    between atoms: _548  and  _549
REMARK  209  A    between atoms: _548  and  _551
REMARK  210  A    between atoms: _551  and  _552
REMARK  211  A    between atoms: _552  and  _553
REMARK  212  A    between atoms: _555  and  _557
REMARK  213  A    between atoms: _557  and  _558
REMARK  214  A    between atoms: _557  and  _560
REMARK  215  A    between atoms: _560  and  _561
REMARK  216  A    between atoms: _566  and  _567
REMARK  217  A    between atoms: _569  and  _571
REMARK  218  A    between atoms: _571  and  _572
REMARK  219  A    between atoms: _571  and  _574
REMARK  220  A    between atoms: _574  and  _575
REMARK  221  A    between atoms: _575  and  _576
REMARK  222  A    between atoms: _576  and  _577
REMARK  223  A    between atoms: _586  and  _588
REMARK  224  A    between atoms: _588  and  _589
REMARK  225  A    between atoms: _588  and  _591
REMARK  226  A    between atoms: _591  and  _592
REMARK  227  A    between atoms: _597  and  _598
REMARK  228  A    between atoms: _600  and  _602
REMARK  229  A    between atoms: _602  and  _603
REMARK  230  A    between atoms: _602  and  _605
REMARK  231  A    between atoms: _605  and  _606
REMARK  232  A    between atoms: _606  and  _607
REMARK  233  A    between atoms: _610  and  _612
REMARK  234  A    between atoms: _612  and  _613
REMARK  235  A    between atoms: _612  and  _615
REMARK  236  A    between atoms: _615  and  _616
REMARK  237  A    between atoms: _616  and  _617
REMARK  238  A    between atoms: _617  and  _618
REMARK                            x       y       z     vdW  Elec       q    Type
REMARK                         _______ _______ _______ _____ _____    ______ ____
ROOT
ATOM      1  CA  LYS A   3      20.434  39.307  52.612  0.00  0.00    +0.149 C 
ENDROOT
BRANCH   1   3
ATOM      2  C   ASN A   2      20.119  41.093  54.271  0.00  0.00    +0.241 C 
ATOM      3  N   LYS A   3      19.848  39.844  53.874  0.00  0.00    -0.297 N 
ATOM      4  H   LYS A   3      19.224  39.243  54.450  0.00  0.00    +0.150 HD
ATOM      5  O   ASN A   2      20.883  41.839  53.646  0.00  0.00    -0.273 OA
BRANCH   2   6
ATOM      6  CA  ASN A   2      19.429  41.600  55.548  0.00  0.00    +0.158 C 
BRANCH   6   9
ATOM      7  C   ASN A   1      20.213  39.881  57.158  0.00  0.00    +0.239 C 
ATOM      8  O   ASN A   1      21.387  39.990  56.834  0.00  0.00    -0.274 OA
ATOM      9  N   ASN A   2      19.236  40.623  56.629  0.00  0.00    -0.297 N 
ATOM     10  H   ASN A   2      18.275  40.501  57.007  0.00  0.00    +0.150 HD
BRANCH   7  11
ATOM     11  CA  ASN A   1      19.802  38.844  58.212  0.00  0.00    +0.154 C 
BRANCH  11  12
ATOM     12  N   ASN A   1      18.349  38.689  58.337  0.00  0.00    -0.238 NA
ATOM     13  H   ASN A   1      17.892  37.896  57.843  0.00  0.00    +0.142 HD
ENDBRANCH  11  12
BRANCH  11  14
ATOM     14  CB  ASN A   1      20.421  37.498  57.859  0.00  0.00    +0.111 C 
BRANCH  14  15
ATOM     15  CG  ASN A   1      21.933  37.524  57.884  0.00  0.00    +0.221 C 
ATOM     16  OD1 ASN A   1      22.541  38.081  58.816  0.00  0.00    -0.275 OA
ATOM     17  ND2 ASN A   1      22.557  36.930  56.863  0.00  0.00    -0.329 N 
ATOM     18 HD21 ASN A   1      23.596  36.920  56.824  0.00  0.00    +0.145 HD
ATOM     19 HD22 ASN A   1      22.004  36.478  56.108  0.00  0.00    +0.145 HD
ENDBRANCH  14  15
ENDBRANCH  11  14
ENDBRANCH   7  11
ENDBRANCH   6   9
BRANCH   6  20
ATOM     20  CB  ASN A   2      20.022  42.957  56.054  0.00  0.00    +0.114 C 
BRANCH  20  21
ATOM     21  CG  ASN A   2      21.497  42.857  56.594  0.00  0.00    +0.222 C 
ATOM     22  OD1 ASN A   2      21.735  42.960  57.832  0.00  0.00    -0.275 OA
ATOM     23  ND2 ASN A   2      22.482  42.687  55.668  0.00  0.00    -0.329 N 
ATOM     24 HD21 ASN A   2      23.476  42.637  55.969  0.00  0.00    +0.145 HD
ATOM     25 HD22 ASN A   2      22.240  42.607  54.660  0.00  0.00    +0.145 HD
ENDBRANCH  20  21
ENDBRANCH   6  20
ENDBRANCH   2   6
ENDBRANCH   1   3
BRANCH   1  26
ATOM     26  C   LYS A   3      19.493  38.606  51.655  0.00  0.00    +0.241 C 
ATOM     27  O   LYS A   3      18.478  38.105  52.031  0.00  0.00    -0.273 OA
ATOM     28  N   ILE A   4      19.870  38.588  50.389  0.00  0.00    -0.297 N 
ATOM     29  H   ILE A   4      20.652  39.202  50.083  0.00  0.00    +0.150 HD
BRANCH  28  30
ATOM     30  CA  ILE A   4      19.222  37.736  49.420  0.00  0.00    +0.149 C 
BRANCH  30  31
ATOM     31  C   ILE A   4      20.168  36.564  49.191  0.00  0.00    +0.244 C 
ATOM     32  O   ILE A   4      21.377  36.674  49.449  0.00  0.00    -0.273 OA
ATOM     33  N   PRO A   5      19.645  35.436  48.714  0.00  0.00    -0.272 N 
ATOM     34  CA  PRO A   5      18.245  35.180  48.409  0.00  0.00    +0.152 C 
ATOM     35  CB  PRO A   5      18.304  33.931  47.542  0.00  0.00    +0.031 C 
ATOM     36  CG  PRO A   5      19.506  33.210  48.061  0.00  0.00    +0.024 C 
ATOM     37  CD  PRO A   5      20.505  34.292  48.369  0.00  0.00    +0.094 C 
BRANCH  34  38
ATOM     38  C   PRO A   5      17.353  34.937  49.632  0.00  0.00    +0.241 C 
ATOM     39  O   PRO A   5      17.827  34.571  50.744  0.00  0.00    -0.273 OA
ATOM     40  N   ALA A   6      16.066  35.171  49.407  0.00  0.00    -0.298 N 
ATOM     41  H   ALA A   6      15.792  35.683  48.544  0.00  0.00    +0.150 HD
BRANCH  40  42
ATOM     42  CA  ALA A   6      15.024  34.735  50.327  0.00  0.00    +0.137 C 
ATOM     43  CB  ALA A   6      14.598  35.869  51.241  0.00  0.00    +0.030 C 
BRANCH  42  44
ATOM     44  C   ALA A   6      13.880  34.305  49.439  0.00  0.00    +0.227 C 
ATOM     45  O   ALA A   6      13.761  34.805  48.308  0.00  0.00    -0.286 OA
ENDBRANCH  42  44
ENDBRANCH  40  42
ENDBRANCH  34  38
ENDBRANCH  30  31
BRANCH  30  46
ATOM     46  CB  ILE A   4      18.869  38.495  48.092  0.00  0.00    +0.027 C 
ATOM     47  CG2 ILE A   4      17.879  39.591  48.371  0.00  0.00    +0.002 C 
BRANCH  46  48
ATOM     48  CG1 ILE A   4      20.130  38.993  47.350  0.00  0.00    +0.002 C 
ATOM     49  CD1 ILE A   4      20.795  37.916  46.408  0.00  0.00    +0.000 C 
ENDBRANCH  46  48
ENDBRANCH  30  46
ENDBRANCH  28  30
ENDBRANCH   1  26
BRANCH   1  50
ATOM     50  CB  LYS A   3      21.670  38.413  52.880  0.00  0.00    +0.029 C 
BRANCH  50  51
ATOM     51  CG  LYS A   3      22.759  39.192  53.548  0.00  0.00    +0.000 C 
BRANCH  51  52
ATOM     52  CD  LYS A   3      23.999  38.419  53.876  0.00  0.00    -0.024 C 
BRANCH  52  53
ATOM     53  CE  LYS A   3      24.864  39.364  54.698  0.00  0.00    -0.086 C 
BRANCH  53  54
ATOM     54  NZ  LYS A   3      26.138  38.730  55.045  0.00  0.00    +0.380 N 
ATOM     55  HZ1 LYS A   3      26.712  39.392  55.605  0.00  0.00    -0.089 HD
ATOM     56  HZ2 LYS A   3      25.956  37.870  55.601  0.00  0.00    -0.089 HD
ATOM     57  HZ3 LYS A   3      26.648  38.479  54.174  0.00  0.00    -0.089 HD
ENDBRANCH  53  54
ENDBRANCH  52  53
ENDBRANCH  51  52
ENDBRANCH  50  51
ENDBRANCH   1  50
TORSDOF 22
REMARK  Name = ../refined-set-2016/3gx0/3gx0_pocket.pdb
REMARK  238 active torsions:
REMARK  status: ('A' for Active; 'I' for Inactive)
REMARK    1  A    between atoms: _1  and  _3
REMARK    2  A    between atoms: _3  and  _4
REMARK    3  A    between atoms: _3  and  _6
REMARK    4  A    between atoms: _6  and  _7
REMARK    5  A    between atoms: _12  and  _13
REMARK    6  A    between atoms: _15  and  _17
REMARK    7  A    between atoms: _17  and  _18
REMARK    8  A    between atoms: _17  and  _20
REMARK    9  A    between atoms: _20  and  _21
REMARK   10  A    between atoms: _27  and  _29
REMARK   11  A    between atoms: _29  and  _30
REMARK   12  A    between atoms: _34  and  _35
REMARK   13  A    between atoms: _40  and  _42
REMARK   14  A    between atoms: _42  and  _43
REMARK   15  A    between atoms: _42  and  _45
REMARK   16  A    between atoms: _45  and  _46
REMARK   17  A    between atoms: _50  and  _51
REMARK   18  A    between atoms: _56  and  _58
REMARK   19  A    between atoms: _58  and  _59
REMARK   20  A    between atoms: _58  and  _61
REMARK   21  A    between atoms: _61  and  _62
REMARK   22  A    between atoms: _67  and  _69
REMARK   23  A    between atoms: _69  and  _70
REMARK   24  A    between atoms: _72  and  _74
REMARK   25  A    between atoms: _74  and  _75
REMARK   26  A    between atoms: _74  and  _77
REMARK   27  A    between atoms: _77  and  _78
REMARK   28  A    between atoms: _83  and  _85
REMARK   29  A    between atoms: _85  and  _86
REMARK   30  A    between atoms: _85  and  _88
REMARK   31  A    between atoms: _88  and  _89
REMARK   32  A    between atoms: _89  and  _90
REMARK   33  A    between atoms: _90  and  _91
REMARK   34  A    between atoms: _91  and  _92
REMARK   35  A    between atoms: _96  and  _98
REMARK   36  A    between atoms: _98  and  _99
REMARK   37  A    between atoms: _98  and  _101
REMARK   38  A    between atoms: _101  and  _102
REMARK   39  A    between atoms: _105  and  _107
REMARK   40  A    between atoms: _107  and  _108
REMARK   41  A    between atoms: _107  and  _110
REMARK   42  A    between atoms: _113  and  _115
REMARK   43  A    between atoms: _115  and  _116
REMARK   44  A    between atoms: _115  and  _118
REMARK   45  A    between atoms: _118  and  _119
REMARK   46  A    between atoms: _122  and  _124
REMARK   47  A    between atoms: _124  and  _125
REMARK   48  A    between atoms: _124  and  _127
REMARK   49  A    between atoms: _127  and  _128
REMARK   50  A    between atoms: _131  and  _133
REMARK   51  A    between atoms: _133  and  _134
REMARK   52  A    between atoms: _136  and  _138
REMARK   53  A    between atoms: _138  and  _139
REMARK   54  A    between atoms: _141  and  _143
REMARK   55  A    between atoms: _143  and  _144
REMARK   56  A    between atoms: _143  and  _146
REMARK   57  A    between atoms: _146  and  _147
REMARK   58  A    between atoms: _147  and  _148
REMARK   59  A    between atoms: _153  and  _155
REMARK   60  A    between atoms: _155  and  _156
REMARK   61  A    between atoms: _155  and  _158
REMARK   62  A    between atoms: _158  and  _159
REMARK   63  A    between atoms: _165  and  _167
REMARK   64  A    between atoms: _167  and  _168
REMARK   65  A    between atoms: _167  and  _170
REMARK   66  A    between atoms: _170  and  _171
REMARK   67  A    between atoms: _177  and  _179
REMARK   68  A    between atoms: _179  and  _180
REMARK   69  A    between atoms: _179  and  _182
REMARK   70  A    between atoms: _182  and  _183
REMARK   71  A    between atoms: _185  and  _187
REMARK   72  A    between atoms: _187  and  _188
REMARK   73  A    between atoms: _187  and  _190
REMARK   74  A    between atoms: _190  and  _191
REMARK   75  A    between atoms: _196  and  _198
REMARK   76  A    between atoms: _198  and  _199
REMARK   77  A    between atoms: _198  and  _201
REMARK   78  A    between atoms: _201  and  _202
REMARK   79  A    between atoms: _207  and  _209
REMARK   80  A    between atoms: _209  and  _210
REMARK   81  A    between atoms: _209  and  _212
REMARK   82  A    between atoms: _212  and  _213
REMARK   83  A    between atoms: _213  and  _214
REMARK   84  A    between atoms: _214  and  _215
REMARK   85  A    between atoms: _215  and  _216
REMARK   86  A    between atoms: _220  and  _222
REMARK   87  A    between atoms: _222  and  _223
REMARK   88  A    between atoms: _222  and  _225
REMARK   89  A    between atoms: _225  and  _226
REMARK   90  A    between atoms: _230  and  _231
REMARK   91  A    between atoms: _236  and  _238
REMARK   92  A    between atoms: _238  and  _239
REMARK   93  A    between atoms: _242  and  _244
REMARK   94  A    between atoms: _244  and  _245
REMARK   95  A    between atoms: _244  and  _247
REMARK   96  A    between atoms: _247  and  _248
REMARK   97  A    between atoms: _254  and  _256
REMARK   98  A    between atoms: _256  and  _257
REMARK   99  A    between atoms: _256  and  _259
REMARK  100  A    between atoms: _259  and  _260
REMARK  101  A    between atoms: _260  and  _261
REMARK  102  A    between atoms: _264  and  _266
REMARK  103  A    between atoms: _266  and  _267
REMARK  104  A    between atoms: _266  and  _269
REMARK  105  A    between atoms: _269  and  _270
REMARK  106  A    between atoms: _272  and  _274
REMARK  107  A    between atoms: _274  and  _275
REMARK  108  A    between atoms: _277  and  _279
REMARK  109  A    between atoms: _279  and  _280
REMARK  110  A    between atoms: _283  and  _285
REMARK  111  A    between atoms: _285  and  _286
REMARK  112  A    between atoms: _285  and  _288
REMARK  113  A    between atoms: _288  and  _289
REMARK  114  A    between atoms: _292  and  _294
REMARK  115  A    between atoms: _294  and  _295
REMARK  116  A    between atoms: _294  and  _297
REMARK  117  A    between atoms: _297  and  _298
REMARK  118  A    between atoms: _301  and  _303
REMARK  119  A    between atoms: _303  and  _304
REMARK  120  A    between atoms: _303  and  _306
REMARK  121  A    between atoms: _306  and  _307
REMARK  122  A    between atoms: _307  and  _308
REMARK  123  A    between atoms: _313  and  _315
REMARK  124  A    between atoms: _315  and  _316
REMARK  125  A    between atoms: _315  and  _318
REMARK  126  A    between atoms: _321  and  _323
REMARK  127  A    between atoms: _323  and  _324
REMARK  128  A    between atoms: _326  and  _328
REMARK  129  A    between atoms: _328  and  _329
REMARK  130  A    between atoms: _331  and  _333
REMARK  131  A    between atoms: _333  and  _334
REMARK  132  A    between atoms: _333  and  _336
REMARK  133  A    between atoms: _336  and  _337
REMARK  134  A    between atoms: _340  and  _342
REMARK  135  A    between atoms: _342  and  _343
REMARK  136  A    between atoms: _346  and  _347
REMARK  137  A    between atoms: _352  and  _354
REMARK  138  A    between atoms: _354  and  _355
REMARK  139  A    between atoms: _354  and  _357
REMARK  140  A    between atoms: _357  and  _358
REMARK  141  A    between atoms: _358  and  _359
REMARK  142  A    between atoms: _361  and  _363
REMARK  143  A    between atoms: _363  and  _364
REMARK  144  A    between atoms: _363  and  _366
REMARK  145  A    between atoms: _366  and  _367
REMARK  146  A    between atoms: _370  and  _372
REMARK  147  A    between atoms: _372  and  _373
REMARK  148  A    between atoms: _375  and  _377
REMARK  149  A    between atoms: _377  and  _378
REMARK  150  A    between atoms: _377  and  _380
REMARK  151  A    between atoms: _380  and  _381
REMARK  152  A    between atoms: _381  and  _382
REMARK  153  A    between atoms: _387  and  _389
REMARK  154  A    between atoms: _389  and  _390
REMARK  155  A    between atoms: _389  and  _392
REMARK  156  A    between atoms: _392  and  _393
REMARK  157  A    between atoms: _398  and  _400
REMARK  158  A    between atoms: _400  and  _401
REMARK  159  A    between atoms: _400  and  _403
REMARK  160  A    between atoms: _403  and  _404
REMARK  161  A    between atoms: _409  and  _411
REMARK  162  A    between atoms: _411  and  _412
REMARK  163  A    between atoms: _411  and  _414
REMARK  164  A    between atoms: _414  and  _415
REMARK  165  A    between atoms: _420  and  _422
REMARK  166  A    between atoms: _422  and  _423
REMARK  167  A    between atoms: _422  and  _425
REMARK  168  A    between atoms: _425  and  _426
REMARK  169  A    between atoms: _432  and  _434
REMARK  170  A    between atoms: _434  and  _435
REMARK  171  A    between atoms: _438  and  _440
REMARK  172  A    between atoms: _440  and  _441
REMARK  173  A    between atoms: _444  and  _446
REMARK  174  A    between atoms: _446  and  _447
REMARK  175  A    between atoms: _446  and  _449
REMARK  176  A    between atoms: _449  and  _450
REMARK  177  A    between atoms: _460  and  _462
REMARK  178  A    between atoms: _462  and  _463
REMARK  179  A    between atoms: _462  and  _465
REMARK  180  A    between atoms: _465  and  _466
REMARK  181  A    between atoms: _466  and  _467
REMARK  182  A    between atoms: _472  and  _474
REMARK  183  A    between atoms: _474  and  _475
REMARK  184  A    between atoms: _474  and  _477
REMARK  185  A    between atoms: _477  and  _478
REMARK  186  A    between atoms: _484  and  _486
REMARK  187  A    between atoms: _486  and  _487
REMARK  188  A    between atoms: _486  and  _489
REMARK  189  A    between atoms: _489  and  _490
REMARK  190  A    between atoms: _500  and  _502
REMARK  191  A    between atoms: _502  and  _503
REMARK  192  A    between atoms: _502  and  _505
REMARK  193  A    between atoms: _505  and  _506
REMARK  194  A    between atoms: _506  and  _507
REMARK  195  A    between atoms: _512  and  _514
REMARK  196  A    between atoms: _514  and  _515
REMARK  197  A    between atoms: _514  and  _517
REMARK  198  A    between atoms: _520  and  _522
REMARK  199  A    between atoms: _522  and  _523
REMARK  200  A    between atoms: _525  and  _527
REMARK  201  A    between atoms: _527  and  _528
REMARK  202  A    between atoms: _530  and  _532
REMARK  203  A    between atoms: _532  and  _533
REMARK  204  A    between atoms: _532  and  _535
REMARK  205  A    between atoms: _535  and  _536
REMARK  206  A    between atoms: _540  and  _541
REMARK  207  A    between atoms: _546  and  _548
REMARK  208  A    between atoms: _548  and  _549
REMARK  209  A    between atoms: _548  and  _551
REMARK  210  A    between atoms: _551  and  _552
REMARK  211  A    between atoms: _552  and  _553
REMARK  212  A    between atoms: _555  and  _557
REMARK  213  A    between atoms: _557  and  _558
REMARK  214  A    between atoms: _557  and  _560
REMARK  215  A    between atoms: _560  and  _561
REMARK  216  A    between atoms: _566  and  _567
REMARK  217  A    between atoms: _569  and  _571
REMARK  218  A    between atoms: _571  and  _572
REMARK  219  A    between atoms: _571  and  _574
REMARK  220  A    between atoms: _574  and  _575
REMARK  221  A    between atoms: _575  and  _576
REMARK  222  A    between atoms: _576  and  _577
REMARK  223  A    between atoms: _586  and  _588
REMARK  224  A    between atoms: _588  and  _589
REMARK  225  A    between atoms: _588  and  _591
REMARK  226  A    between atoms: _591  and  _592
REMARK  227  A    between atoms: _597  and  _598
REMARK  228  A    between atoms: _600  and  _602
REMARK  229  A    between atoms: _602  and  _603
REMARK  230  A    between atoms: _602  and  _605
REMARK  231  A    between atoms: _605  and  _606
REMARK  232  A    between atoms: _606  and  _607
REMARK  233  A    between atoms: _610  and  _612
REMARK  234  A    between atoms: _612  and  _613
REMARK  235  A    between atoms: _612  and  _615
REMARK  236  A    between atoms: _615  and  _616
REMARK  237  A    between atoms: _616  and  _617
REMARK  238  A    between atoms: _617  and  _618
REMARK                            x       y       z     vdW  Elec       q    Type
REMARK                         _______ _______ _______ _____ _____    ______ ____
ROOT
ATOM      1  C   SER A   3      20.667  28.395  50.395  0.00  0.00    +0.243 C 
ATOM      2  N   GLY A   4      21.469  28.005  51.393  0.00  0.00    -0.295 N 
ATOM      3  H   GLY A   4      22.002  28.726  51.919  0.00  0.00    +0.150 HD
ATOM      4  O   SER A   3      19.907  27.610  49.783  0.00  0.00    -0.273 OA
ENDROOT
BRANCH   2   5
ATOM      5  CA  GLY A   4      21.622  26.599  51.770  0.00  0.00    +0.176 C 
BRANCH   5   6
ATOM      6  C   GLY A   4      20.334  26.013  52.320  0.00  0.00    +0.243 C 
ATOM      7  N   ALA A   5      19.619  26.783  53.151  0.00  0.00    -0.297 N 
ATOM      8  H   ALA A   5      19.957  27.738  53.387  0.00  0.00    +0.150 HD
ATOM      9  O   GLY A   4      20.021  24.888  52.029  0.00  0.00    -0.273 OA
BRANCH   7  10
ATOM     10  CA  ALA A   5      18.368  26.294  53.729  0.00  0.00    +0.149 C 
ATOM     11  CB  ALA A   5      17.969  27.116  54.968  0.00  0.00    +0.031 C 
BRANCH  10  12
ATOM     12  C   ALA A   5      17.249  26.326  52.700  0.00  0.00    +0.241 C 
ATOM     13  O   ALA A   5      16.312  25.516  52.773  0.00  0.00    -0.273 OA
ATOM     14  N   ILE A   6      17.325  27.263  51.753  0.00  0.00    -0.297 N 
ATOM     15  H   ILE A   6      18.077  27.979  51.799  0.00  0.00    +0.150 HD
BRANCH  14  16
ATOM     16  CA  ILE A   6      16.361  27.296  50.647  0.00  0.00    +0.149 C 
BRANCH  16  17
ATOM     17  C   ILE A   6      16.538  26.069  49.755  0.00  0.00    +0.241 C 
ATOM     18  O   ILE A   6      15.577  25.354  49.467  0.00  0.00    -0.273 OA
ATOM     19  N   LEU A   7      17.763  25.782  49.351  0.00  0.00    -0.298 N 
ATOM     20  H   LEU A   7      18.549  26.415  49.602  0.00  0.00    +0.150 HD
BRANCH  19  21
ATOM     21  CA  LEU A   7      18.020  24.603  48.567  0.00  0.00    +0.137 C 
BRANCH  21  22
ATOM     22  C   LEU A   7      17.576  23.341  49.296  0.00  0.00    +0.227 C 
ATOM     23  O   LEU A   7      16.951  22.459  48.692  0.00  0.00    -0.286 OA
ENDBRANCH  21  22
BRANCH  21  24
ATOM     24  CB  LEU A   7      19.502  24.517  48.243  0.00  0.00    +0.028 C 
BRANCH  24  25
ATOM     25  CG  LEU A   7      20.085  25.585  47.311  0.00  0.00    +0.002 C 
ATOM     26  CD2 LEU A   7      21.635  25.468  47.304  0.00  0.00    +0.000 C 
ATOM     27  CD1 LEU A   7      19.498  25.489  45.912  0.00  0.00    +0.000 C 
ENDBRANCH  24  25
ENDBRANCH  21  24
ENDBRANCH  19  21
ENDBRANCH  16  17
BRANCH  16  28
ATOM     28  CB  ILE A   6      16.441  28.621  49.842  0.00  0.00    +0.027 C 
ATOM     29  CG2 ILE A   6      15.450  28.599  48.698  0.00  0.00    +0.002 C 
BRANCH  28  30
ATOM     30  CG1 ILE A   6      16.113  29.824  50.737  0.00  0.00    +0.002 C 
ATOM     31  CD1 ILE A   6      16.684  31.140  50.198  0.00  0.00    +0.000 C 
ENDBRANCH  28  30
ENDBRANCH  16  28
ENDBRANCH  14  16
ENDBRANCH  10  12
ENDBRANCH   7  10
ENDBRANCH   5   6
ENDBRANCH   2   5
BRANCH   1  32
ATOM     32  CA  SER A   3      20.634  29.906  50.110  0.00  0.00    +0.178 C 
BRANCH  32  35
ATOM     33  C   GLU A   2      19.785  30.486  52.338  0.00  0.00    +0.241 C 
ATOM     34  O   GLU A   2      18.982  29.518  52.390  0.00  0.00    -0.273 OA
ATOM     35  N   SER A   3      20.650  30.702  51.339  0.00  0.00    -0.295 N 
ATOM     36  H   SER A   3      21.356  31.459  51.439  0.00  0.00    +0.150 HD
BRANCH  33  37
ATOM     37  CA  GLU A   2      19.867  31.470  53.483  0.00  0.00    +0.149 C 
BRANCH  37  40
ATOM     38  C   PHE A   1      17.507  31.970  54.060  0.00  0.00    +0.239 C 
ATOM     39  O   PHE A   1      17.347  30.854  54.620  0.00  0.00    -0.274 OA
ATOM     40  N   GLU A   2      18.681  32.345  53.551  0.00  0.00    -0.297 N 
ATOM     41  H   GLU A   2      18.766  33.313  53.180  0.00  0.00    +0.150 HD
BRANCH  38  42
ATOM     42  CA  PHE A   1      16.305  32.985  53.937  0.00  0.00    +0.149 C 
BRANCH  42  43
ATOM     43  N   PHE A   1      15.064  32.376  54.476  0.00  0.00    -0.238 NA
ATOM     44  H   PHE A   1      15.026  32.087  55.474  0.00  0.00    +0.142 HD
ENDBRANCH  42  43
BRANCH  42  45
ATOM     45  CB  PHE A   1      16.566  34.370  54.599  0.00  0.00    +0.053 C 
BRANCH  45  46
ATOM     46  CG  PHE A   1      17.023  34.283  56.048  0.00  0.00    -0.020 A 
ATOM     47  CD2 PHE A   1      16.094  34.199  57.098  0.00  0.00    -0.004 A 
ATOM     48  CE2 PHE A   1      16.535  34.081  58.451  0.00  0.00    -0.000 A 
ATOM     49  CZ  PHE A   1      17.912  34.069  58.742  0.00  0.00    -0.000 A 
ATOM     50  CE1 PHE A   1      18.826  34.166  57.697  0.00  0.00    -0.000 A 
ATOM     51  CD1 PHE A   1      18.385  34.263  56.366  0.00  0.00    -0.004 A 
ENDBRANCH  45  46
ENDBRANCH  42  45
ENDBRANCH  38  42
ENDBRANCH  37  40
BRANCH  37  52
ATOM     52  CB  GLU A   2      20.241  30.723  54.810  0.00  0.00    +0.041 C 
BRANCH  52  53
ATOM     53  CG  GLU A   2      20.803  31.605  55.915  0.00  0.00    +0.116 C 
BRANCH  53  54
ATOM     54  CD  GLU A   2      22.222  32.166  55.586  0.00  0.00    +0.365 C 
ATOM     55  OE2 GLU A   2      22.522  33.310  56.034  0.00  0.00    -0.246 OA
ATOM     56  OE1 GLU A   2      23.018  31.459  54.872  0.00  0.00    -0.246 OA
ENDBRANCH  53  54
ENDBRANCH  52  53
ENDBRANCH  37  52
ENDBRANCH  33  37
ENDBRANCH  32  35
BRANCH  32  57
ATOM     57  CB  SER A   3      21.739  30.369  49.131  0.00  0.00    +0.166 C 
BRANCH  57  58
ATOM     58  OG  SER A   3      23.026  30.295  49.730  0.00  0.00    -0.380 OA
ATOM     59  H   SER A   3      23.050  30.877  50.530  0.00  0.00    +0.211 HD
ENDBRANCH  57  58
ENDBRANCH  32  57
ENDBRANCH   1  32
TORSDOF 25
REMARK  Name = ../refined-set-2016/3gx0/3gx0_pocket.pdb
REMARK  238 active torsions:
REMARK  status: ('A' for Active; 'I' for Inactive)
REMARK    1  A    between atoms: _1  and  _3
REMARK    2  A    between atoms: _3  and  _4
REMARK    3  A    between atoms: _3  and  _6
REMARK    4  A    between atoms: _6  and  _7
REMARK    5  A    between atoms: _12  and  _13
REMARK    6  A    between atoms: _15  and  _17
REMARK    7  A    between atoms: _17  and  _18
REMARK    8  A    between atoms: _17  and  _20
REMARK    9  A    between atoms: _20  and  _21
REMARK   10  A    between atoms: _27  and  _29
REMARK   11  A    between atoms: _29  and  _30
REMARK   12  A    between atoms: _34  and  _35
REMARK   13  A    between atoms: _40  and  _42
REMARK   14  A    between atoms: _42  and  _43
REMARK   15  A    between atoms: _42  and  _45
REMARK   16  A    between atoms: _45  and  _46
REMARK   17  A    between atoms: _50  and  _51
REMARK   18  A    between atoms: _56  and  _58
REMARK   19  A    between atoms: _58  and  _59
REMARK   20  A    between atoms: _58  and  _61
REMARK   21  A    between atoms: _61  and  _62
REMARK   22  A    between atoms: _67  and  _69
REMARK   23  A    between atoms: _69  and  _70
REMARK   24  A    between atoms: _72  and  _74
REMARK   25  A    between atoms: _74  and  _75
REMARK   26  A    between atoms: _74  and  _77
REMARK   27  A    between atoms: _77  and  _78
REMARK   28  A    between atoms: _83  and  _85
REMARK   29  A    between atoms: _85  and  _86
REMARK   30  A    between atoms: _85  and  _88
REMARK   31  A    between atoms: _88  and  _89
REMARK   32  A    between atoms: _89  and  _90
REMARK   33  A    between atoms: _90  and  _91
REMARK   34  A    between atoms: _91  and  _92
REMARK   35  A    between atoms: _96  and  _98
REMARK   36  A    between atoms: _98  and  _99
REMARK   37  A    between atoms: _98  and  _101
REMARK   38  A    between atoms: _101  and  _102
REMARK   39  A    between atoms: _105  and  _107
REMARK   40  A    between atoms: _107  and  _108
REMARK   41  A    between atoms: _107  and  _110
REMARK   42  A    between atoms: _113  and  _115
REMARK   43  A    between atoms: _115  and  _116
REMARK   44  A    between atoms: _115  and  _118
REMARK   45  A    between atoms: _118  and  _119
REMARK   46  A    between atoms: _122  and  _124
REMARK   47  A    between atoms: _124  and  _125
REMARK   48  A    between atoms: _124  and  _127
REMARK   49  A    between atoms: _127  and  _128
REMARK   50  A    between atoms: _131  and  _133
REMARK   51  A    between atoms: _133  and  _134
REMARK   52  A    between atoms: _136  and  _138
REMARK   53  A    between atoms: _138  and  _139
REMARK   54  A    between atoms: _141  and  _143
REMARK   55  A    between atoms: _143  and  _144
REMARK   56  A    between atoms: _143  and  _146
REMARK   57  A    between atoms: _146  and  _147
REMARK   58  A    between atoms: _147  and  _148
REMARK   59  A    between atoms: _153  and  _155
REMARK   60  A    between atoms: _155  and  _156
REMARK   61  A    between atoms: _155  and  _158
REMARK   62  A    between atoms: _158  and  _159
REMARK   63  A    between atoms: _165  and  _167
REMARK   64  A    between atoms: _167  and  _168
REMARK   65  A    between atoms: _167  and  _170
REMARK   66  A    between atoms: _170  and  _171
REMARK   67  A    between atoms: _177  and  _179
REMARK   68  A    between atoms: _179  and  _180
REMARK   69  A    between atoms: _179  and  _182
REMARK   70  A    between atoms: _182  and  _183
REMARK   71  A    between atoms: _185  and  _187
REMARK   72  A    between atoms: _187  and  _188
REMARK   73  A    between atoms: _187  and  _190
REMARK   74  A    between atoms: _190  and  _191
REMARK   75  A    between atoms: _196  and  _198
REMARK   76  A    between atoms: _198  and  _199
REMARK   77  A    between atoms: _198  and  _201
REMARK   78  A    between atoms: _201  and  _202
REMARK   79  A    between atoms: _207  and  _209
REMARK   80  A    between atoms: _209  and  _210
REMARK   81  A    between atoms: _209  and  _212
REMARK   82  A    between atoms: _212  and  _213
REMARK   83  A    between atoms: _213  and  _214
REMARK   84  A    between atoms: _214  and  _215
REMARK   85  A    between atoms: _215  and  _216
REMARK   86  A    between atoms: _220  and  _222
REMARK   87  A    between atoms: _222  and  _223
REMARK   88  A    between atoms: _222  and  _225
REMARK   89  A    between atoms: _225  and  _226
REMARK   90  A    between atoms: _230  and  _231
REMARK   91  A    between atoms: _236  and  _238
REMARK   92  A    between atoms: _238  and  _239
REMARK   93  A    between atoms: _242  and  _244
REMARK   94  A    between atoms: _244  and  _245
REMARK   95  A    between atoms: _244  and  _247
REMARK   96  A    between atoms: _247  and  _248
REMARK   97  A    between atoms: _254  and  _256
REMARK   98  A    between atoms: _256  and  _257
REMARK   99  A    between atoms: _256  and  _259
REMARK  100  A    between atoms: _259  and  _260
REMARK  101  A    between atoms: _260  and  _261
REMARK  102  A    between atoms: _264  and  _266
REMARK  103  A    between atoms: _266  and  _267
REMARK  104  A    between atoms: _266  and  _269
REMARK  105  A    between atoms: _269  and  _270
REMARK  106  A    between atoms: _272  and  _274
REMARK  107  A    between atoms: _274  and  _275
REMARK  108  A    between atoms: _277  and  _279
REMARK  109  A    between atoms: _279  and  _280
REMARK  110  A    between atoms: _283  and  _285
REMARK  111  A    between atoms: _285  and  _286
REMARK  112  A    between atoms: _285  and  _288
REMARK  113  A    between atoms: _288  and  _289
REMARK  114  A    between atoms: _292  and  _294
REMARK  115  A    between atoms: _294  and  _295
REMARK  116  A    between atoms: _294  and  _297
REMARK  117  A    between atoms: _297  and  _298
REMARK  118  A    between atoms: _301  and  _303
REMARK  119  A    between atoms: _303  and  _304
REMARK  120  A    between atoms: _303  and  _306
REMARK  121  A    between atoms: _306  and  _307
REMARK  122  A    between atoms: _307  and  _308
REMARK  123  A    between atoms: _313  and  _315
REMARK  124  A    between atoms: _315  and  _316
REMARK  125  A    between atoms: _315  and  _318
REMARK  126  A    between atoms: _321  and  _323
REMARK  127  A    between atoms: _323  and  _324
REMARK  128  A    between atoms: _326  and  _328
REMARK  129  A    between atoms: _328  and  _329
REMARK  130  A    between atoms: _331  and  _333
REMARK  131  A    between atoms: _333  and  _334
REMARK  132  A    between atoms: _333  and  _336
REMARK  133  A    between atoms: _336  and  _337
REMARK  134  A    between atoms: _340  and  _342
REMARK  135  A    between atoms: _342  and  _343
REMARK  136  A    between atoms: _346  and  _347
REMARK  137  A    between atoms: _352  and  _354
REMARK  138  A    between atoms: _354  and  _355
REMARK  139  A    between atoms: _354  and  _357
REMARK  140  A    between atoms: _357  and  _358
REMARK  141  A    between atoms: _358  and  _359
REMARK  142  A    between atoms: _361  and  _363
REMARK  143  A    between atoms: _363  and  _364
REMARK  144  A    between atoms: _363  and  _366
REMARK  145  A    between atoms: _366  and  _367
REMARK  146  A    between atoms: _370  and  _372
REMARK  147  A    between atoms: _372  and  _373
REMARK  148  A    between atoms: _375  and  _377
REMARK  149  A    between atoms: _377  and  _378
REMARK  150  A    between atoms: _377  and  _380
REMARK  151  A    between atoms: _380  and  _381
REMARK  152  A    between atoms: _381  and  _382
REMARK  153  A    between atoms: _387  and  _389
REMARK  154  A    between atoms: _389  and  _390
REMARK  155  A    between atoms: _389  and  _392
REMARK  156  A    between atoms: _392  and  _393
REMARK  157  A    between atoms: _398  and  _400
REMARK  158  A    between atoms: _400  and  _401
REMARK  159  A    between atoms: _400  and  _403
REMARK  160  A    between atoms: _403  and  _404
REMARK  161  A    between atoms: _409  and  _411
REMARK  162  A    between atoms: _411  and  _412
REMARK  163  A    between atoms: _411  and  _414
REMARK  164  A    between atoms: _414  and  _415
REMARK  165  A    between atoms: _420  and  _422
REMARK  166  A    between atoms: _422  and  _423
REMARK  167  A    between atoms: _422  and  _425
REMARK  168  A    between atoms: _425  and  _426
REMARK  169  A    between atoms: _432  and  _434
REMARK  170  A    between atoms: _434  and  _435
REMARK  171  A    between atoms: _438  and  _440
REMARK  172  A    between atoms: _440  and  _441
REMARK  173  A    between atoms: _444  and  _446
REMARK  174  A    between atoms: _446  and  _447
REMARK  175  A    between atoms: _446  and  _449
REMARK  176  A    between atoms: _449  and  _450
REMARK  177  A    between atoms: _460  and  _462
REMARK  178  A    between atoms: _462  and  _463
REMARK  179  A    between atoms: _462  and  _465
REMARK  180  A    between atoms: _465  and  _466
REMARK  181  A    between atoms: _466  and  _467
REMARK  182  A    between atoms: _472  and  _474
REMARK  183  A    between atoms: _474  and  _475
REMARK  184  A    between atoms: _474  and  _477
REMARK  185  A    between atoms: _477  and  _478
REMARK  186  A    between atoms: _484  and  _486
REMARK  187  A    between atoms: _486  and  _487
REMARK  188  A    between atoms: _486  and  _489
REMARK  189  A    between atoms: _489  and  _490
REMARK  190  A    between atoms: _500  and  _502
REMARK  191  A    between atoms: _502  and  _503
REMARK  192  A    between atoms: _502  and  _505
REMARK  193  A    between atoms: _505  and  _506
REMARK  194  A    between atoms: _506  and  _507
REMARK  195  A    between atoms: _512  and  _514
REMARK  196  A    between atoms: _514  and  _515
REMARK  197  A    between atoms: _514  and  _517
REMARK  198  A    between atoms: _520  and  _522
REMARK  199  A    between atoms: _522  and  _523
REMARK  200  A    between atoms: _525  and  _527
REMARK  201  A    between atoms: _527  and  _528
REMARK  202  A    between atoms: _530  and  _532
REMARK  203  A    between atoms: _532  and  _533
REMARK  204  A    between atoms: _532  and  _535
REMARK  205  A    between atoms: _535  and  _536
REMARK  206  A    between atoms: _540  and  _541
REMARK  207  A    between atoms: _546  and  _548
REMARK  208  A    between atoms: _548  and  _549
REMARK  209  A    between atoms: _548  and  _551
REMARK  210  A    between atoms: _551  and  _552
REMARK  211  A    between atoms: _552  and  _553
REMARK  212  A    between atoms: _555  and  _557
REMARK  213  A    between atoms: _557  and  _558
REMARK  214  A    between atoms: _557  and  _560
REMARK  215  A    between atoms: _560  and  _561
REMARK  216  A    between atoms: _566  and  _567
REMARK  217  A    between atoms: _569  and  _571
REMARK  218  A    between atoms: _571  and  _572
REMARK  219  A    between atoms: _571  and  _574
REMARK  220  A    between atoms: _574  and  _575
REMARK  221  A    between atoms: _575  and  _576
REMARK  222  A    between atoms: _576  and  _577
REMARK  223  A    between atoms: _586  and  _588
REMARK  224  A    between atoms: _588  and  _589
REMARK  225  A    between atoms: _588  and  _591
REMARK  226  A    between atoms: _591  and  _592
REMARK  227  A    between atoms: _597  and  _598
REMARK  228  A    between atoms: _600  and  _602
REMARK  229  A    between atoms: _602  and  _603
REMARK  230  A    between atoms: _602  and  _605
REMARK  231  A    between atoms: _605  and  _606
REMARK  232  A    between atoms: _606  and  _607
REMARK  233  A    between atoms: _610  and  _612
REMARK  234  A    between atoms: _612  and  _613
REMARK  235  A    between atoms: _612  and  _615
REMARK  236  A    between atoms: _615  and  _616
REMARK  237  A    between atoms: _616  and  _617
REMARK  238  A    between atoms: _617  and  _618
REMARK                            x       y       z     vdW  Elec       q    Type
REMARK                         _______ _______ _______ _____ _____    ______ ____
ROOT
ATOM      1  CA  LEU A   9      35.603  33.684  47.822  0.00  0.00    +0.149 C 
ENDROOT
BRANCH   1   2
ATOM      2  C   LEU A   9      35.015  35.086  47.862  0.00  0.00    +0.241 C 
ATOM      3  N   GLY A  10      33.991  35.277  48.711  0.00  0.00    -0.295 N 
ATOM      4  H   GLY A  10      33.617  34.456  49.228  0.00  0.00    +0.150 HD
ATOM      5  O   LEU A   9      35.475  35.965  47.128  0.00  0.00    -0.273 OA
BRANCH   3   6
ATOM      6  CA  GLY A  10      33.381  36.575  48.942  0.00  0.00    +0.176 C 
BRANCH   6   7
ATOM      7  C   GLY A  10      34.356  37.580  49.531  0.00  0.00    +0.243 C 
ATOM      8  N   GLN A  11      35.170  37.143  50.500  0.00  0.00    -0.297 N 
ATOM      9  H   GLN A  11      35.054  36.169  50.846  0.00  0.00    +0.150 HD
ATOM     10  O   GLY A  10      34.343  38.748  49.124  0.00  0.00    -0.273 OA
BRANCH   8  11
ATOM     11  CA  GLN A  11      36.228  37.987  51.099  0.00  0.00    +0.149 C 
BRANCH  11  12
ATOM     12  C   GLN A  11      37.255  38.330  50.039  0.00  0.00    +0.241 C 
ATOM     13  O   GLN A  11      37.713  39.458  49.965  0.00  0.00    -0.273 OA
ATOM     14  N   ASN A  12      37.606  37.330  49.235  0.00  0.00    -0.297 N 
ATOM     15  H   ASN A  12      37.289  36.371  49.483  0.00  0.00    +0.150 HD
BRANCH  14  16
ATOM     16  CA  ASN A  12      38.404  37.494  48.033  0.00  0.00    +0.158 C 
BRANCH  16  17
ATOM     17  C   ASN A  12      37.816  38.565  47.100  0.00  0.00    +0.241 C 
ATOM     18  O   ASN A  12      38.521  39.512  46.762  0.00  0.00    -0.273 OA
ATOM     19  N   HIS A  13      36.552  38.429  46.688  0.00  0.00    -0.297 N 
ATOM     20  H   HIS A  13      36.006  37.592  46.977  0.00  0.00    +0.150 HD
BRANCH  19  21
ATOM     21  CA  HIS A  13      35.918  39.453  45.826  0.00  0.00    +0.155 C 
BRANCH  21  22
ATOM     22  C   HIS A  13      35.973  40.836  46.536  0.00  0.00    +0.241 C 
ATOM     23  N   HIS A  14      35.824  40.863  47.871  0.00  0.00    -0.297 N 
ATOM     24  H   HIS A  14      35.720  39.972  48.398  0.00  0.00    +0.150 HD
ATOM     25  O   HIS A  13      36.144  41.855  45.876  0.00  0.00    -0.273 OA
BRANCH  23  26
ATOM     26  CA  HIS A  14      35.807  42.139  48.588  0.00  0.00    +0.155 C 
BRANCH  26  27
ATOM     27  C   HIS A  14      37.152  42.883  48.560  0.00  0.00    +0.241 C 
ATOM     28  N   PHE A  15      38.230  42.198  48.933  0.00  0.00    -0.298 N 
ATOM     29  H   PHE A  15      38.133  41.189  49.167  0.00  0.00    +0.150 HD
ATOM     30  O   HIS A  14      37.190  44.066  48.227  0.00  0.00    -0.273 OA
BRANCH  28  31
ATOM     31  CA  PHE A  15      39.547  42.826  49.022  0.00  0.00    +0.141 C 
BRANCH  31  32
ATOM     32  C   PHE A  15      40.156  43.197  47.649  0.00  0.00    +0.227 C 
ATOM     33  O   PHE A  15      40.955  44.128  47.554  0.00  0.00    -0.286 OA
ENDBRANCH  31  32
BRANCH  31  34
ATOM     34  CB  PHE A  15      40.498  41.987  49.885  0.00  0.00    +0.054 C 
BRANCH  34  35
ATOM     35  CG  PHE A  15      40.227  42.109  51.367  0.00  0.00    -0.020 A 
ATOM     36  CD2 PHE A  15      40.605  43.269  52.071  0.00  0.00    -0.004 A 
ATOM     37  CE2 PHE A  15      40.347  43.413  53.441  0.00  0.00    -0.000 A 
ATOM     38  CZ  PHE A  15      39.703  42.384  54.140  0.00  0.00    -0.000 A 
ATOM     39  CE1 PHE A  15      39.313  41.210  53.449  0.00  0.00    -0.000 A 
ATOM     40  CD1 PHE A  15      39.574  41.087  52.064  0.00  0.00    -0.004 A 
ENDBRANCH  34  35
ENDBRANCH  31  34
ENDBRANCH  28  31
ENDBRANCH  26  27
BRANCH  26  41
ATOM     41  CB  HIS A  14      35.321  42.032  50.030  0.00  0.00    +0.076 C 
BRANCH  41  42
ATOM     42  CG  HIS A  14      35.481  43.318  50.791  0.00  0.00    +0.082 A 
ATOM     43  CD2 HIS A  14      36.402  43.708  51.702  0.00  0.00    +0.115 A 
ATOM     44  NE2 HIS A  14      36.099  45.003  52.057  0.00  0.00    -0.221 NA
ATOM     45  CE1 HIS A  14      35.037  45.398  51.384  0.00  0.00    +0.199 A 
ATOM     46  ND1 HIS A  14      34.650  44.407  50.602  0.00  0.00    -0.227 NA
ENDBRANCH  41  42
ENDBRANCH  26  41
ENDBRANCH  23  26
ENDBRANCH  21  22
BRANCH  21  47
ATOM     47  CB  HIS A  13      34.439  39.162  45.468  0.00  0.00    +0.076 C 
BRANCH  47  48
ATOM     48  CG  HIS A  13      34.187  37.918  44.640  0.00  0.00    +0.082 A 
ATOM     49  ND1 HIS A  13      32.904  37.472  44.354  0.00  0.00    -0.227 NA
ATOM     50  CE1 HIS A  13      32.968  36.373  43.619  0.00  0.00    +0.199 A 
ATOM     51  NE2 HIS A  13      34.241  36.081  43.420  0.00  0.00    -0.221 NA
ATOM     52  CD2 HIS A  13      35.026  37.029  44.047  0.00  0.00    +0.115 A 
ENDBRANCH  47  48
ENDBRANCH  21  47
ENDBRANCH  19  21
ENDBRANCH  16  17
BRANCH  16  53
ATOM     53  CB  ASN A  12      38.562  36.129  47.336  0.00  0.00    +0.114 C 
BRANCH  53  54
ATOM     54  CG  ASN A  12      39.408  36.185  46.067  0.00  0.00    +0.222 C 
ATOM     55  ND2 ASN A  12      40.475  35.393  46.054  0.00  0.00    -0.329 N 
ATOM     56 HD21 ASN A  12      40.708  34.821  46.890  0.00  0.00    +0.145 HD
ATOM     57 HD22 ASN A  12      41.077  35.346  45.207  0.00  0.00    +0.145 HD
ATOM     58  OD1 ASN A  12      39.088  36.888  45.093  0.00  0.00    -0.275 OA
ENDBRANCH  53  54
ENDBRANCH  16  53
ENDBRANCH  14  16
ENDBRANCH  11  12
BRANCH  11  59
ATOM     59  CB  GLN A  11      36.948  37.335  52.293  0.00  0.00    +0.039 C 
BRANCH  59  60
ATOM     60  CG  GLN A  11      36.091  36.979  53.523  0.00  0.00    +0.087 C 
BRANCH  60  61
ATOM     61  CD  GLN A  11      34.822  37.808  53.628  0.00  0.00    +0.219 C 
ATOM     62  NE2 GLN A  11      34.940  39.007  54.199  0.00  0.00    -0.329 N 
ATOM     63 HE21 GLN A  11      35.862  39.322  54.562  0.00  0.00    +0.145 HD
ATOM     64 HE22 GLN A  11      34.110  39.628  54.282  0.00  0.00    +0.145 HD
ATOM     65  OE1 GLN A  11      33.745  37.378  53.176  0.00  0.00    -0.275 OA
ENDBRANCH  60  61
ENDBRANCH  59  60
ENDBRANCH  11  59
ENDBRANCH   8  11
ENDBRANCH   6   7
ENDBRANCH   3   6
ENDBRANCH   1   2
BRANCH   1  68
ATOM     66  C   MET A   8      36.267  33.467  50.121  0.00  0.00    +0.241 C 
ATOM     67  O   MET A   8      37.094  34.364  49.961  0.00  0.00    -0.273 OA
ATOM     68  N   LEU A   9      35.511  33.039  49.127  0.00  0.00    -0.297 N 
ATOM     69  H   LEU A   9      34.854  32.247  49.274  0.00  0.00    +0.150 HD
BRANCH  66  70
ATOM     70  CA  MET A   8      36.050  32.832  51.507  0.00  0.00    +0.149 C 
BRANCH  70  73
ATOM     71  C   PRO A   7      33.839  33.492  52.162  0.00  0.00    +0.241 C 
ATOM     72  O   PRO A   7      34.163  34.657  52.046  0.00  0.00    -0.273 OA
ATOM     73  N   MET A   8      34.670  32.505  51.853  0.00  0.00    -0.297 N 
ATOM     74  H   MET A   8      34.344  31.517  51.857  0.00  0.00    +0.150 HD
BRANCH  71  77
ATOM     75  C   GLY A   6      31.709  32.325  50.402  0.00  0.00    +0.246 C 
ATOM     76  N   PRO A   7      31.809  32.118  51.758  0.00  0.00    -0.272 N 
ATOM     77  CA  PRO A   7      32.420  33.152  52.618  0.00  0.00    +0.152 C 
ATOM     78  CB  PRO A   7      32.376  32.546  54.052  0.00  0.00    +0.031 C 
ATOM     79  CG  PRO A   7      31.332  31.487  53.974  0.00  0.00    +0.024 C 
ATOM     80  CD  PRO A   7      31.267  30.989  52.549  0.00  0.00    +0.094 C 
ATOM     81  O   GLY A   6      31.930  33.400  49.851  0.00  0.00    -0.273 OA
BRANCH  75  82
ATOM     82  CA  GLY A   6      31.178  31.203  49.561  0.00  0.00    +0.176 C 
BRANCH  82  84
ATOM     83  C   LEU A   5      33.101  29.769  49.370  0.00  0.00    +0.241 C 
ATOM     84  N   GLY A   6      31.876  29.976  49.840  0.00  0.00    -0.295 N 
ATOM     85  H   GLY A   6      31.416  29.243  50.416  0.00  0.00    +0.150 HD
ATOM     86  O   LEU A   5      33.725  30.636  48.770  0.00  0.00    -0.273 OA
BRANCH  83  87
ATOM     87  CA  LEU A   5      33.670  28.331  49.515  0.00  0.00    +0.149 C 
BRANCH  87  90
ATOM     88  C   GLY A   4      34.013  28.484  51.920  0.00  0.00    +0.243 C 
ATOM     89  O   GLY A   4      34.377  29.660  51.853  0.00  0.00    -0.273 OA
ATOM     90  N   LEU A   5      33.602  27.773  50.865  0.00  0.00    -0.297 N 
ATOM     91  H   LEU A   5      33.230  26.812  51.006  0.00  0.00    +0.150 HD
BRANCH  88  92
ATOM     92  CA  GLY A   4      33.957  27.790  53.244  0.00  0.00    +0.176 C 
BRANCH  92  95
ATOM     93  C   GLY A   3      32.214  28.108  54.885  0.00  0.00    +0.243 C 
ATOM     94  O   GLY A   3      32.953  28.847  55.547  0.00  0.00    -0.273 OA
ATOM     95  N   GLY A   4      32.576  27.631  53.705  0.00  0.00    -0.295 N 
ATOM     96  H   GLY A   4      31.880  27.143  53.105  0.00  0.00    +0.150 HD
BRANCH  93  97
ATOM     97  CA  GLY A   3      30.834  27.688  55.409  0.00  0.00    +0.176 C 
BRANCH  97  99
ATOM     98  C   VAL A   2      29.060  28.144  53.741  0.00  0.00    +0.241 C 
ATOM     99  N   GLY A   3      29.883  27.278  54.358  0.00  0.00    -0.295 N 
ATOM    100  H   GLY A   3      29.848  26.276  54.082  0.00  0.00    +0.150 HD
ATOM    101  O   VAL A   2      29.053  29.341  53.971  0.00  0.00    -0.273 OA
BRANCH  98 102
ATOM    102  CA  VAL A   2      28.110  27.580  52.682  0.00  0.00    +0.148 C 
BRANCH 102 104
ATOM    103  C   GLN A   1      29.705  26.764  50.998  0.00  0.00    +0.238 C 
ATOM    104  N   VAL A   2      28.771  26.537  51.916  0.00  0.00    -0.297 N 
ATOM    105  H   VAL A   2      28.496  25.551  52.098  0.00  0.00    +0.150 HD
ATOM    106  O   GLN A   1      30.149  27.862  50.797  0.00  0.00    -0.274 OA
BRANCH 103 107
ATOM    107  CA  GLN A   1      30.162  25.534  50.179  0.00  0.00    +0.145 C 
BRANCH 107 108
ATOM    108  N   GLN A   1      30.331  24.358  51.086  0.00  0.00    -0.238 NA
ATOM    109  H   GLN A   1      29.715  23.532  50.943  0.00  0.00    +0.142 HD
ENDBRANCH 107 108
BRANCH 107 110
ATOM    110  CB  GLN A   1      29.091  25.146  49.110  0.00  0.00    +0.036 C 
BRANCH 110 111
ATOM    111  CG  GLN A   1      28.721  26.182  48.071  0.00  0.00    +0.087 C 
BRANCH 111 112
ATOM    112  CD  GLN A   1      28.136  27.452  48.661  0.00  0.00    +0.219 C 
ATOM    113  OE1 GLN A   1      27.092  27.408  49.349  0.00  0.00    -0.275 OA
ATOM    114  NE2 GLN A   1      28.811  28.606  48.424  0.00  0.00    -0.329 N 
ATOM    115 HE21 GLN A   1      28.464  29.502  48.821  0.00  0.00    +0.145 HD
ATOM    116 HE22 GLN A   1      29.675  28.594  47.845  0.00  0.00    +0.145 HD
ENDBRANCH 111 112
ENDBRANCH 110 111
ENDBRANCH 107 110
ENDBRANCH 103 107
ENDBRANCH 102 104
BRANCH 102 117
ATOM    117  CB  VAL A   2      26.833  27.049  53.390  0.00  0.00    +0.027 C 
ATOM    118  CG2 VAL A   2      26.362  28.038  54.479  0.00  0.00    +0.002 C 
ATOM    119  CG1 VAL A   2      25.683  26.710  52.368  0.00  0.00    +0.002 C 
ENDBRANCH 102 117
ENDBRANCH  98 102
ENDBRANCH  97  99
ENDBRANCH  93  97
ENDBRANCH  92  95
ENDBRANCH  88  92
ENDBRANCH  87  90
BRANCH  87 120
ATOM    120  CB  LEU A   5      32.982  27.400  48.481  0.00  0.00    +0.029 C 
BRANCH 120 121
ATOM    121  CG  LEU A   5      33.240  27.822  47.022  0.00  0.00    +0.002 C 
ATOM    122  CD2 LEU A   5      34.681  27.441  46.638  0.00  0.00    +0.000 C 
ATOM    123  CD1 LEU A   5      32.231  27.221  46.071  0.00  0.00    +0.000 C 
ENDBRANCH 120 121
ENDBRANCH  87 120
ENDBRANCH  83  87
ENDBRANCH  82  84
ENDBRANCH  75  82
ENDBRANCH  71  77
ENDBRANCH  70  73
BRANCH  70 124
ATOM    124  CB  MET A   8      36.974  31.646  51.756  0.00  0.00    +0.041 C 
BRANCH 124 125
ATOM    125  CG  MET A   8      37.033  31.236  53.201  0.00  0.00    +0.060 C 
BRANCH 125 126
ATOM    126  SD  MET A   8      37.608  32.563  54.292  0.00  0.00    -0.139 S 
ATOM    127  CE  MET A   8      37.466  31.765  55.885  0.00  0.00    +0.069 C 
ENDBRANCH 125 126
ENDBRANCH 124 125
ENDBRANCH  70 124
ENDBRANCH  66  70
ENDBRANCH   1  68
BRANCH   1 128
ATOM    128  CB  LEU A   9      34.961  32.855  46.723  0.00  0.00    +0.029 C 
BRANCH 128 129
ATOM    129  CG  LEU A   9      35.844  31.788  46.091  0.00  0.00    +0.002 C 
ATOM    130  CD2 LEU A   9      36.486  30.791  47.066  0.00  0.00    +0.000 C 
ATOM    131  CD1 LEU A   9      34.994  31.041  45.080  0.00  0.00    +0.000 C 
ENDBRANCH 128 129
ENDBRANCH   1 128
TORSDOF 51
REMARK  Name = ../refined-set-2016/3gx0/3gx0_pocket.pdb
REMARK  238 active torsions:
REMARK  status: ('A' for Active; 'I' for Inactive)
REMARK    1  A    between atoms: _1  and  _3
REMARK    2  A    between atoms: _3  and  _4
REMARK    3  A    between atoms: _3  and  _6
REMARK    4  A    between atoms: _6  and  _7
REMARK    5  A    between atoms: _12  and  _13
REMARK    6  A    between atoms: _15  and  _17
REMARK    7  A    between atoms: _17  and  _18
REMARK    8  A    between atoms: _17  and  _20
REMARK    9  A    between atoms: _20  and  _21
REMARK   10  A    between atoms: _27  and  _29
REMARK   11  A    between atoms: _29  and  _30
REMARK   12  A    between atoms: _34  and  _35
REMARK   13  A    between atoms: _40  and  _42
REMARK   14  A    between atoms: _42  and  _43
REMARK   15  A    between atoms: _42  and  _45
REMARK   16  A    between atoms: _45  and  _46
REMARK   17  A    between atoms: _50  and  _51
REMARK   18  A    between atoms: _56  and  _58
REMARK   19  A    between atoms: _58  and  _59
REMARK   20  A    between atoms: _58  and  _61
REMARK   21  A    between atoms: _61  and  _62
REMARK   22  A    between atoms: _67  and  _69
REMARK   23  A    between atoms: _69  and  _70
REMARK   24  A    between atoms: _72  and  _74
REMARK   25  A    between atoms: _74  and  _75
REMARK   26  A    between atoms: _74  and  _77
REMARK   27  A    between atoms: _77  and  _78
REMARK   28  A    between atoms: _83  and  _85
REMARK   29  A    between atoms: _85  and  _86
REMARK   30  A    between atoms: _85  and  _88
REMARK   31  A    between atoms: _88  and  _89
REMARK   32  A    between atoms: _89  and  _90
REMARK   33  A    between atoms: _90  and  _91
REMARK   34  A    between atoms: _91  and  _92
REMARK   35  A    between atoms: _96  and  _98
REMARK   36  A    between atoms: _98  and  _99
REMARK   37  A    between atoms: _98  and  _101
REMARK   38  A    between atoms: _101  and  _102
REMARK   39  A    between atoms: _105  and  _107
REMARK   40  A    between atoms: _107  and  _108
REMARK   41  A    between atoms: _107  and  _110
REMARK   42  A    between atoms: _113  and  _115
REMARK   43  A    between atoms: _115  and  _116
REMARK   44  A    between atoms: _115  and  _118
REMARK   45  A    between atoms: _118  and  _119
REMARK   46  A    between atoms: _122  and  _124
REMARK   47  A    between atoms: _124  and  _125
REMARK   48  A    between atoms: _124  and  _127
REMARK   49  A    between atoms: _127  and  _128
REMARK   50  A    between atoms: _131  and  _133
REMARK   51  A    between atoms: _133  and  _134
REMARK   52  A    between atoms: _136  and  _138
REMARK   53  A    between atoms: _138  and  _139
REMARK   54  A    between atoms: _141  and  _143
REMARK   55  A    between atoms: _143  and  _144
REMARK   56  A    between atoms: _143  and  _146
REMARK   57  A    between atoms: _146  and  _147
REMARK   58  A    between atoms: _147  and  _148
REMARK   59  A    between atoms: _153  and  _155
REMARK   60  A    between atoms: _155  and  _156
REMARK   61  A    between atoms: _155  and  _158
REMARK   62  A    between atoms: _158  and  _159
REMARK   63  A    between atoms: _165  and  _167
REMARK   64  A    between atoms: _167  and  _168
REMARK   65  A    between atoms: _167  and  _170
REMARK   66  A    between atoms: _170  and  _171
REMARK   67  A    between atoms: _177  and  _179
REMARK   68  A    between atoms: _179  and  _180
REMARK   69  A    between atoms: _179  and  _182
REMARK   70  A    between atoms: _182  and  _183
REMARK   71  A    between atoms: _185  and  _187
REMARK   72  A    between atoms: _187  and  _188
REMARK   73  A    between atoms: _187  and  _190
REMARK   74  A    between atoms: _190  and  _191
REMARK   75  A    between atoms: _196  and  _198
REMARK   76  A    between atoms: _198  and  _199
REMARK   77  A    between atoms: _198  and  _201
REMARK   78  A    between atoms: _201  and  _202
REMARK   79  A    between atoms: _207  and  _209
REMARK   80  A    between atoms: _209  and  _210
REMARK   81  A    between atoms: _209  and  _212
REMARK   82  A    between atoms: _212  and  _213
REMARK   83  A    between atoms: _213  and  _214
REMARK   84  A    between atoms: _214  and  _215
REMARK   85  A    between atoms: _215  and  _216
REMARK   86  A    between atoms: _220  and  _222
REMARK   87  A    between atoms: _222  and  _223
REMARK   88  A    between atoms: _222  and  _225
REMARK   89  A    between atoms: _225  and  _226
REMARK   90  A    between atoms: _230  and  _231
REMARK   91  A    between atoms: _236  and  _238
REMARK   92  A    between atoms: _238  and  _239
REMARK   93  A    between atoms: _242  and  _244
REMARK   94  A    between atoms: _244  and  _245
REMARK   95  A    between atoms: _244  and  _247
REMARK   96  A    between atoms: _247  and  _248
REMARK   97  A    between atoms: _254  and  _256
REMARK   98  A    between atoms: _256  and  _257
REMARK   99  A    between atoms: _256  and  _259
REMARK  100  A    between atoms: _259  and  _260
REMARK  101  A    between atoms: _260  and  _261
REMARK  102  A    between atoms: _264  and  _266
REMARK  103  A    between atoms: _266  and  _267
REMARK  104  A    between atoms: _266  and  _269
REMARK  105  A    between atoms: _269  and  _270
REMARK  106  A    between atoms: _272  and  _274
REMARK  107  A    between atoms: _274  and  _275
REMARK  108  A    between atoms: _277  and  _279
REMARK  109  A    between atoms: _279  and  _280
REMARK  110  A    between atoms: _283  and  _285
REMARK  111  A    between atoms: _285  and  _286
REMARK  112  A    between atoms: _285  and  _288
REMARK  113  A    between atoms: _288  and  _289
REMARK  114  A    between atoms: _292  and  _294
REMARK  115  A    between atoms: _294  and  _295
REMARK  116  A    between atoms: _294  and  _297
REMARK  117  A    between atoms: _297  and  _298
REMARK  118  A    between atoms: _301  and  _303
REMARK  119  A    between atoms: _303  and  _304
REMARK  120  A    between atoms: _303  and  _306
REMARK  121  A    between atoms: _306  and  _307
REMARK  122  A    between atoms: _307  and  _308
REMARK  123  A    between atoms: _313  and  _315
REMARK  124  A    between atoms: _315  and  _316
REMARK  125  A    between atoms: _315  and  _318
REMARK  126  A    between atoms: _321  and  _323
REMARK  127  A    between atoms: _323  and  _324
REMARK  128  A    between atoms: _326  and  _328
REMARK  129  A    between atoms: _328  and  _329
REMARK  130  A    between atoms: _331  and  _333
REMARK  131  A    between atoms: _333  and  _334
REMARK  132  A    between atoms: _333  and  _336
REMARK  133  A    between atoms: _336  and  _337
REMARK  134  A    between atoms: _340  and  _342
REMARK  135  A    between atoms: _342  and  _343
REMARK  136  A    between atoms: _346  and  _347
REMARK  137  A    between atoms: _352  and  _354
REMARK  138  A    between atoms: _354  and  _355
REMARK  139  A    between atoms: _354  and  _357
REMARK  140  A    between atoms: _357  and  _358
REMARK  141  A    between atoms: _358  and  _359
REMARK  142  A    between atoms: _361  and  _363
REMARK  143  A    between atoms: _363  and  _364
REMARK  144  A    between atoms: _363  and  _366
REMARK  145  A    between atoms: _366  and  _367
REMARK  146  A    between atoms: _370  and  _372
REMARK  147  A    between atoms: _372  and  _373
REMARK  148  A    between atoms: _375  and  _377
REMARK  149  A    between atoms: _377  and  _378
REMARK  150  A    between atoms: _377  and  _380
REMARK  151  A    between atoms: _380  and  _381
REMARK  152  A    between atoms: _381  and  _382
REMARK  153  A    between atoms: _387  and  _389
REMARK  154  A    between atoms: _389  and  _390
REMARK  155  A    between atoms: _389  and  _392
REMARK  156  A    between atoms: _392  and  _393
REMARK  157  A    between atoms: _398  and  _400
REMARK  158  A    between atoms: _400  and  _401
REMARK  159  A    between atoms: _400  and  _403
REMARK  160  A    between atoms: _403  and  _404
REMARK  161  A    between atoms: _409  and  _411
REMARK  162  A    between atoms: _411  and  _412
REMARK  163  A    between atoms: _411  and  _414
REMARK  164  A    between atoms: _414  and  _415
REMARK  165  A    between atoms: _420  and  _422
REMARK  166  A    between atoms: _422  and  _423
REMARK  167  A    between atoms: _422  and  _425
REMARK  168  A    between atoms: _425  and  _426
REMARK  169  A    between atoms: _432  and  _434
REMARK  170  A    between atoms: _434  and  _435
REMARK  171  A    between atoms: _438  and  _440
REMARK  172  A    between atoms: _440  and  _441
REMARK  173  A    between atoms: _444  and  _446
REMARK  174  A    between atoms: _446  and  _447
REMARK  175  A    between atoms: _446  and  _449
REMARK  176  A    between atoms: _449  and  _450
REMARK  177  A    between atoms: _460  and  _462
REMARK  178  A    between atoms: _462  and  _463
REMARK  179  A    between atoms: _462  and  _465
REMARK  180  A    between atoms: _465  and  _466
REMARK  181  A    between atoms: _466  and  _467
REMARK  182  A    between atoms: _472  and  _474
REMARK  183  A    between atoms: _474  and  _475
REMARK  184  A    between atoms: _474  and  _477
REMARK  185  A    between atoms: _477  and  _478
REMARK  186  A    between atoms: _484  and  _486
REMARK  187  A    between atoms: _486  and  _487
REMARK  188  A    between atoms: _486  and  _489
REMARK  189  A    between atoms: _489  and  _490
REMARK  190  A    between atoms: _500  and  _502
REMARK  191  A    between atoms: _502  and  _503
REMARK  192  A    between atoms: _502  and  _505
REMARK  193  A    between atoms: _505  and  _506
REMARK  194  A    between atoms: _506  and  _507
REMARK  195  A    between atoms: _512  and  _514
REMARK  196  A    between atoms: _514  and  _515
REMARK  197  A    between atoms: _514  and  _517
REMARK  198  A    between atoms: _520  and  _522
REMARK  199  A    between atoms: _522  and  _523
REMARK  200  A    between atoms: _525  and  _527
REMARK  201  A    between atoms: _527  and  _528
REMARK  202  A    between atoms: _530  and  _532
REMARK  203  A    between atoms: _532  and  _533
REMARK  204  A    between atoms: _532  and  _535
REMARK  205  A    between atoms: _535  and  _536
REMARK  206  A    between atoms: _540  and  _541
REMARK  207  A    between atoms: _546  and  _548
REMARK  208  A    between atoms: _548  and  _549
REMARK  209  A    between atoms: _548  and  _551
REMARK  210  A    between atoms: _551  and  _552
REMARK  211  A    between atoms: _552  and  _553
REMARK  212  A    between atoms: _555  and  _557
REMARK  213  A    between atoms: _557  and  _558
REMARK  214  A    between atoms: _557  and  _560
REMARK  215  A    between atoms: _560  and  _561
REMARK  216  A    between atoms: _566  and  _567
REMARK  217  A    between atoms: _569  and  _571
REMARK  218  A    between atoms: _571  and  _572
REMARK  219  A    between atoms: _571  and  _574
REMARK  220  A    between atoms: _574  and  _575
REMARK  221  A    between atoms: _575  and  _576
REMARK  222  A    between atoms: _576  and  _577
REMARK  223  A    between atoms: _586  and  _588
REMARK  224  A    between atoms: _588  and  _589
REMARK  225  A    between atoms: _588  and  _591
REMARK  226  A    between atoms: _591  and  _592
REMARK  227  A    between atoms: _597  and  _598
REMARK  228  A    between atoms: _600  and  _602
REMARK  229  A    between atoms: _602  and  _603
REMARK  230  A    between atoms: _602  and  _605
REMARK  231  A    between atoms: _605  and  _606
REMARK  232  A    between atoms: _606  and  _607
REMARK  233  A    between atoms: _610  and  _612
REMARK  234  A    between atoms: _612  and  _613
REMARK  235  A    between atoms: _612  and  _615
REMARK  236  A    between atoms: _615  and  _616
REMARK  237  A    between atoms: _616  and  _617
REMARK  238  A    between atoms: _617  and  _618
REMARK                            x       y       z     vdW  Elec       q    Type
REMARK                         _______ _______ _______ _____ _____    ______ ____
ROOT
ATOM      1  C   ALA A   1      36.157  47.456  47.620  0.00  0.00    +0.238 C 
ATOM      2  N   ALA A   2      37.104  46.916  48.386  0.00  0.00    -0.298 N 
ATOM      3  H   ALA A   2      37.393  45.932  48.210  0.00  0.00    +0.150 HD
ATOM      4  O   ALA A   1      35.780  48.621  47.739  0.00  0.00    -0.274 OA
ENDROOT
BRANCH   1   5
ATOM      5  CA  ALA A   1      35.519  46.562  46.564  0.00  0.00    +0.145 C 
ATOM      6  CB  ALA A   1      34.421  45.681  47.196  0.00  0.00    +0.028 C 
BRANCH   5   7
ATOM      7  N   ALA A   1      36.458  45.743  45.777  0.00  0.00    -0.238 NA
ATOM      8  H   ALA A   1      37.311  45.361  46.234  0.00  0.00    +0.142 HD
ENDBRANCH   5   7
ENDBRANCH   1   5
BRANCH   2   9
ATOM      9  CA  ALA A   2      37.757  47.668  49.476  0.00  0.00    +0.137 C 
ATOM     10  CB  ALA A   2      38.842  46.830  50.158  0.00  0.00    +0.030 C 
BRANCH   9  11
ATOM     11  C   ALA A   2      38.323  49.015  48.986  0.00  0.00    +0.227 C 
ATOM     12  O   ALA A   2      38.976  49.071  47.931  0.00  0.00    -0.286 OA
ENDBRANCH   9  11
ENDBRANCH   2   9
TORSDOF 4
REMARK  Name = ../refined-set-2016/3gx0/3gx0_pocket.pdb
REMARK  238 active torsions:
REMARK  status: ('A' for Active; 'I' for Inactive)
REMARK    1  A    between atoms: _1  and  _3
REMARK    2  A    between atoms: _3  and  _4
REMARK    3  A    between atoms: _3  and  _6
REMARK    4  A    between atoms: _6  and  _7
REMARK    5  A    between atoms: _12  and  _13
REMARK    6  A    between atoms: _15  and  _17
REMARK    7  A    between atoms: _17  and  _18
REMARK    8  A    between atoms: _17  and  _20
REMARK    9  A    between atoms: _20  and  _21
REMARK   10  A    between atoms: _27  and  _29
REMARK   11  A    between atoms: _29  and  _30
REMARK   12  A    between atoms: _34  and  _35
REMARK   13  A    between atoms: _40  and  _42
REMARK   14  A    between atoms: _42  and  _43
REMARK   15  A    between atoms: _42  and  _45
REMARK   16  A    between atoms: _45  and  _46
REMARK   17  A    between atoms: _50  and  _51
REMARK   18  A    between atoms: _56  and  _58
REMARK   19  A    between atoms: _58  and  _59
REMARK   20  A    between atoms: _58  and  _61
REMARK   21  A    between atoms: _61  and  _62
REMARK   22  A    between atoms: _67  and  _69
REMARK   23  A    between atoms: _69  and  _70
REMARK   24  A    between atoms: _72  and  _74
REMARK   25  A    between atoms: _74  and  _75
REMARK   26  A    between atoms: _74  and  _77
REMARK   27  A    between atoms: _77  and  _78
REMARK   28  A    between atoms: _83  and  _85
REMARK   29  A    between atoms: _85  and  _86
REMARK   30  A    between atoms: _85  and  _88
REMARK   31  A    between atoms: _88  and  _89
REMARK   32  A    between atoms: _89  and  _90
REMARK   33  A    between atoms: _90  and  _91
REMARK   34  A    between atoms: _91  and  _92
REMARK   35  A    between atoms: _96  and  _98
REMARK   36  A    between atoms: _98  and  _99
REMARK   37  A    between atoms: _98  and  _101
REMARK   38  A    between atoms: _101  and  _102
REMARK   39  A    between atoms: _105  and  _107
REMARK   40  A    between atoms: _107  and  _108
REMARK   41  A    between atoms: _107  and  _110
REMARK   42  A    between atoms: _113  and  _115
REMARK   43  A    between atoms: _115  and  _116
REMARK   44  A    between atoms: _115  and  _118
REMARK   45  A    between atoms: _118  and  _119
REMARK   46  A    between atoms: _122  and  _124
REMARK   47  A    between atoms: _124  and  _125
REMARK   48  A    between atoms: _124  and  _127
REMARK   49  A    between atoms: _127  and  _128
REMARK   50  A    between atoms: _131  and  _133
REMARK   51  A    between atoms: _133  and  _134
REMARK   52  A    between atoms: _136  and  _138
REMARK   53  A    between atoms: _138  and  _139
REMARK   54  A    between atoms: _141  and  _143
REMARK   55  A    between atoms: _143  and  _144
REMARK   56  A    between atoms: _143  and  _146
REMARK   57  A    between atoms: _146  and  _147
REMARK   58  A    between atoms: _147  and  _148
REMARK   59  A    between atoms: _153  and  _155
REMARK   60  A    between atoms: _155  and  _156
REMARK   61  A    between atoms: _155  and  _158
REMARK   62  A    between atoms: _158  and  _159
REMARK   63  A    between atoms: _165  and  _167
REMARK   64  A    between atoms: _167  and  _168
REMARK   65  A    between atoms: _167  and  _170
REMARK   66  A    between atoms: _170  and  _171
REMARK   67  A    between atoms: _177  and  _179
REMARK   68  A    between atoms: _179  and  _180
REMARK   69  A    between atoms: _179  and  _182
REMARK   70  A    between atoms: _182  and  _183
REMARK   71  A    between atoms: _185  and  _187
REMARK   72  A    between atoms: _187  and  _188
REMARK   73  A    between atoms: _187  and  _190
REMARK   74  A    between atoms: _190  and  _191
REMARK   75  A    between atoms: _196  and  _198
REMARK   76  A    between atoms: _198  and  _199
REMARK   77  A    between atoms: _198  and  _201
REMARK   78  A    between atoms: _201  and  _202
REMARK   79  A    between atoms: _207  and  _209
REMARK   80  A    between atoms: _209  and  _210
REMARK   81  A    between atoms: _209  and  _212
REMARK   82  A    between atoms: _212  and  _213
REMARK   83  A    between atoms: _213  and  _214
REMARK   84  A    between atoms: _214  and  _215
REMARK   85  A    between atoms: _215  and  _216
REMARK   86  A    between atoms: _220  and  _222
REMARK   87  A    between atoms: _222  and  _223
REMARK   88  A    between atoms: _222  and  _225
REMARK   89  A    between atoms: _225  and  _226
REMARK   90  A    between atoms: _230  and  _231
REMARK   91  A    between atoms: _236  and  _238
REMARK   92  A    between atoms: _238  and  _239
REMARK   93  A    between atoms: _242  and  _244
REMARK   94  A    between atoms: _244  and  _245
REMARK   95  A    between atoms: _244  and  _247
REMARK   96  A    between atoms: _247  and  _248
REMARK   97  A    between atoms: _254  and  _256
REMARK   98  A    between atoms: _256  and  _257
REMARK   99  A    between atoms: _256  and  _259
REMARK  100  A    between atoms: _259  and  _260
REMARK  101  A    between atoms: _260  and  _261
REMARK  102  A    between atoms: _264  and  _266
REMARK  103  A    between atoms: _266  and  _267
REMARK  104  A    between atoms: _266  and  _269
REMARK  105  A    between atoms: _269  and  _270
REMARK  106  A    between atoms: _272  and  _274
REMARK  107  A    between atoms: _274  and  _275
REMARK  108  A    between atoms: _277  and  _279
REMARK  109  A    between atoms: _279  and  _280
REMARK  110  A    between atoms: _283  and  _285
REMARK  111  A    between atoms: _285  and  _286
REMARK  112  A    between atoms: _285  and  _288
REMARK  113  A    between atoms: _288  and  _289
REMARK  114  A    between atoms: _292  and  _294
REMARK  115  A    between atoms: _294  and  _295
REMARK  116  A    between atoms: _294  and  _297
REMARK  117  A    between atoms: _297  and  _298
REMARK  118  A    between atoms: _301  and  _303
REMARK  119  A    between atoms: _303  and  _304
REMARK  120  A    between atoms: _303  and  _306
REMARK  121  A    between atoms: _306  and  _307
REMARK  122  A    between atoms: _307  and  _308
REMARK  123  A    between atoms: _313  and  _315
REMARK  124  A    between atoms: _315  and  _316
REMARK  125  A    between atoms: _315  and  _318
REMARK  126  A    between atoms: _321  and  _323
REMARK  127  A    between atoms: _323  and  _324
REMARK  128  A    between atoms: _326  and  _328
REMARK  129  A    between atoms: _328  and  _329
REMARK  130  A    between atoms: _331  and  _333
REMARK  131  A    between atoms: _333  and  _334
REMARK  132  A    between atoms: _333  and  _336
REMARK  133  A    between atoms: _336  and  _337
REMARK  134  A    between atoms: _340  and  _342
REMARK  135  A    between atoms: _342  and  _343
REMARK  136  A    between atoms: _346  and  _347
REMARK  137  A    between atoms: _352  and  _354
REMARK  138  A    between atoms: _354  and  _355
REMARK  139  A    between atoms: _354  and  _357
REMARK  140  A    between atoms: _357  and  _358
REMARK  141  A    between atoms: _358  and  _359
REMARK  142  A    between atoms: _361  and  _363
REMARK  143  A    between atoms: _363  and  _364
REMARK  144  A    between atoms: _363  and  _366
REMARK  145  A    between atoms: _366  and  _367
REMARK  146  A    between atoms: _370  and  _372
REMARK  147  A    between atoms: _372  and  _373
REMARK  148  A    between atoms: _375  and  _377
REMARK  149  A    between atoms: _377  and  _378
REMARK  150  A    between atoms: _377  and  _380
REMARK  151  A    between atoms: _380  and  _381
REMARK  152  A    between atoms: _381  and  _382
REMARK  153  A    between atoms: _387  and  _389
REMARK  154  A    between atoms: _389  and  _390
REMARK  155  A    between atoms: _389  and  _392
REMARK  156  A    between atoms: _392  and  _393
REMARK  157  A    between atoms: _398  and  _400
REMARK  158  A    between atoms: _400  and  _401
REMARK  159  A    between atoms: _400  and  _403
REMARK  160  A    between atoms: _403  and  _404
REMARK  161  A    between atoms: _409  and  _411
REMARK  162  A    between atoms: _411  and  _412
REMARK  163  A    between atoms: _411  and  _414
REMARK  164  A    between atoms: _414  and  _415
REMARK  165  A    between atoms: _420  and  _422
REMARK  166  A    between atoms: _422  and  _423
REMARK  167  A    between atoms: _422  and  _425
REMARK  168  A    between atoms: _425  and  _426
REMARK  169  A    between atoms: _432  and  _434
REMARK  170  A    between atoms: _434  and  _435
REMARK  171  A    between atoms: _438  and  _440
REMARK  172  A    between atoms: _440  and  _441
REMARK  173  A    between atoms: _444  and  _446
REMARK  174  A    between atoms: _446  and  _447
REMARK  175  A    between atoms: _446  and  _449
REMARK  176  A    between atoms: _449  and  _450
REMARK  177  A    between atoms: _460  and  _462
REMARK  178  A    between atoms: _462  and  _463
REMARK  179  A    between atoms: _462  and  _465
REMARK  180  A    between atoms: _465  and  _466
REMARK  181  A    between atoms: _466  and  _467
REMARK  182  A    between atoms: _472  and  _474
REMARK  183  A    between atoms: _474  and  _475
REMARK  184  A    between atoms: _474  and  _477
REMARK  185  A    between atoms: _477  and  _478
REMARK  186  A    between atoms: _484  and  _486
REMARK  187  A    between atoms: _486  and  _487
REMARK  188  A    between atoms: _486  and  _489
REMARK  189  A    between atoms: _489  and  _490
REMARK  190  A    between atoms: _500  and  _502
REMARK  191  A    between atoms: _502  and  _503
REMARK  192  A    between atoms: _502  and  _505
REMARK  193  A    between atoms: _505  and  _506
REMARK  194  A    between atoms: _506  and  _507
REMARK  195  A    between atoms: _512  and  _514
REMARK  196  A    between atoms: _514  and  _515
REMARK  197  A    between atoms: _514  and  _517
REMARK  198  A    between atoms: _520  and  _522
REMARK  199  A    between atoms: _522  and  _523
REMARK  200  A    between atoms: _525  and  _527
REMARK  201  A    between atoms: _527  and  _528
REMARK  202  A    between atoms: _530  and  _532
REMARK  203  A    between atoms: _532  and  _533
REMARK  204  A    between atoms: _532  and  _535
REMARK  205  A    between atoms: _535  and  _536
REMARK  206  A    between atoms: _540  and  _541
REMARK  207  A    between atoms: _546  and  _548
REMARK  208  A    between atoms: _548  and  _549
REMARK  209  A    between atoms: _548  and  _551
REMARK  210  A    between atoms: _551  and  _552
REMARK  211  A    between atoms: _552  and  _553
REMARK  212  A    between atoms: _555  and  _557
REMARK  213  A    between atoms: _557  and  _558
REMARK  214  A    between atoms: _557  and  _560
REMARK  215  A    between atoms: _560  and  _561
REMARK  216  A    between atoms: _566  and  _567
REMARK  217  A    between atoms: _569  and  _571
REMARK  218  A    between atoms: _571  and  _572
REMARK  219  A    between atoms: _571  and  _574
REMARK  220  A    between atoms: _574  and  _575
REMARK  221  A    between atoms: _575  and  _576
REMARK  222  A    between atoms: _576  and  _577
REMARK  223  A    between atoms: _586  and  _588
REMARK  224  A    between atoms: _588  and  _589
REMARK  225  A    between atoms: _588  and  _591
REMARK  226  A    between atoms: _591  and  _592
REMARK  227  A    between atoms: _597  and  _598
REMARK  228  A    between atoms: _600  and  _602
REMARK  229  A    between atoms: _602  and  _603
REMARK  230  A    between atoms: _602  and  _605
REMARK  231  A    between atoms: _605  and  _606
REMARK  232  A    between atoms: _606  and  _607
REMARK  233  A    between atoms: _610  and  _612
REMARK  234  A    between atoms: _612  and  _613
REMARK  235  A    between atoms: _612  and  _615
REMARK  236  A    between atoms: _615  and  _616
REMARK  237  A    between atoms: _616  and  _617
REMARK  238  A    between atoms: _617  and  _618
REMARK                            x       y       z     vdW  Elec       q    Type
REMARK                         _______ _______ _______ _____ _____    ______ ____
ROOT
ATOM      1  CG  TRP A   1      30.172  30.995  45.323  0.00  0.00    -0.002 A 
ATOM      2  CD1 TRP A   1      29.030  30.614  45.931  0.00  0.00    +0.068 A 
ATOM      3  NE1 TRP A   1      28.573  31.608  46.760  0.00  0.00    -0.352 N 
ATOM      4  HE1 TRP A   1      27.721  31.553  47.354  0.00  0.00    +0.166 HD
ATOM      5  CE2 TRP A   1      29.411  32.677  46.681  0.00  0.00    +0.056 A 
ATOM      6  CZ2 TRP A   1      29.349  33.905  47.324  0.00  0.00    +0.017 A 
ATOM      7  CH2 TRP A   1      30.337  34.800  47.084  0.00  0.00    +0.001 A 
ATOM      8  CZ3 TRP A   1      31.383  34.508  46.231  0.00  0.00    +0.000 A 
ATOM      9  CE3 TRP A   1      31.448  33.269  45.558  0.00  0.00    +0.001 A 
ATOM     10  CD2 TRP A   1      30.440  32.333  45.799  0.00  0.00    +0.013 A 
ENDROOT
BRANCH   1  11
ATOM     11  CB  TRP A   1      30.972  30.173  44.303  0.00  0.00    +0.053 C 
BRANCH  11  12
ATOM     12  CA  TRP A   1      30.697  30.611  42.849  0.00  0.00    +0.137 C 
BRANCH  12  13
ATOM     13  N   TRP A   1      29.452  30.045  42.296  0.00  0.00    -0.239 NA
ATOM     14  H   TRP A   1      29.024  29.211  42.748  0.00  0.00    +0.142 HD
ENDBRANCH  12  13
BRANCH  12  15
ATOM     15  C   TRP A   1      31.875  30.267  41.956  0.00  0.00    +0.224 C 
ATOM     16  O   TRP A   1      32.779  31.074  41.788  0.00  0.00    -0.287 OA
ENDBRANCH  12  15
ENDBRANCH  11  12
ENDBRANCH   1  11
TORSDOF 4
REMARK  Name = ../refined-set-2016/3gx0/3gx0_pocket.pdb
REMARK  238 active torsions:
REMARK  status: ('A' for Active; 'I' for Inactive)
REMARK    1  A    between atoms: _1  and  _3
REMARK    2  A    between atoms: _3  and  _4
REMARK    3  A    between atoms: _3  and  _6
REMARK    4  A    between atoms: _6  and  _7
REMARK    5  A    between atoms: _12  and  _13
REMARK    6  A    between atoms: _15  and  _17
REMARK    7  A    between atoms: _17  and  _18
REMARK    8  A    between atoms: _17  and  _20
REMARK    9  A    between atoms: _20  and  _21
REMARK   10  A    between atoms: _27  and  _29
REMARK   11  A    between atoms: _29  and  _30
REMARK   12  A    between atoms: _34  and  _35
REMARK   13  A    between atoms: _40  and  _42
REMARK   14  A    between atoms: _42  and  _43
REMARK   15  A    between atoms: _42  and  _45
REMARK   16  A    between atoms: _45  and  _46
REMARK   17  A    between atoms: _50  and  _51
REMARK   18  A    between atoms: _56  and  _58
REMARK   19  A    between atoms: _58  and  _59
REMARK   20  A    between atoms: _58  and  _61
REMARK   21  A    between atoms: _61  and  _62
REMARK   22  A    between atoms: _67  and  _69
REMARK   23  A    between atoms: _69  and  _70
REMARK   24  A    between atoms: _72  and  _74
REMARK   25  A    between atoms: _74  and  _75
REMARK   26  A    between atoms: _74  and  _77
REMARK   27  A    between atoms: _77  and  _78
REMARK   28  A    between atoms: _83  and  _85
REMARK   29  A    between atoms: _85  and  _86
REMARK   30  A    between atoms: _85  and  _88
REMARK   31  A    between atoms: _88  and  _89
REMARK   32  A    between atoms: _89  and  _90
REMARK   33  A    between atoms: _90  and  _91
REMARK   34  A    between atoms: _91  and  _92
REMARK   35  A    between atoms: _96  and  _98
REMARK   36  A    between atoms: _98  and  _99
REMARK   37  A    between atoms: _98  and  _101
REMARK   38  A    between atoms: _101  and  _102
REMARK   39  A    between atoms: _105  and  _107
REMARK   40  A    between atoms: _107  and  _108
REMARK   41  A    between atoms: _107  and  _110
REMARK   42  A    between atoms: _113  and  _115
REMARK   43  A    between atoms: _115  and  _116
REMARK   44  A    between atoms: _115  and  _118
REMARK   45  A    between atoms: _118  and  _119
REMARK   46  A    between atoms: _122  and  _124
REMARK   47  A    between atoms: _124  and  _125
REMARK   48  A    between atoms: _124  and  _127
REMARK   49  A    between atoms: _127  and  _128
REMARK   50  A    between atoms: _131  and  _133
REMARK   51  A    between atoms: _133  and  _134
REMARK   52  A    between atoms: _136  and  _138
REMARK   53  A    between atoms: _138  and  _139
REMARK   54  A    between atoms: _141  and  _143
REMARK   55  A    between atoms: _143  and  _144
REMARK   56  A    between atoms: _143  and  _146
REMARK   57  A    between atoms: _146  and  _147
REMARK   58  A    between atoms: _147  and  _148
REMARK   59  A    between atoms: _153  and  _155
REMARK   60  A    between atoms: _155  and  _156
REMARK   61  A    between atoms: _155  and  _158
REMARK   62  A    between atoms: _158  and  _159
REMARK   63  A    between atoms: _165  and  _167
REMARK   64  A    between atoms: _167  and  _168
REMARK   65  A    between atoms: _167  and  _170
REMARK   66  A    between atoms: _170  and  _171
REMARK   67  A    between atoms: _177  and  _179
REMARK   68  A    between atoms: _179  and  _180
REMARK   69  A    between atoms: _179  and  _182
REMARK   70  A    between atoms: _182  and  _183
REMARK   71  A    between atoms: _185  and  _187
REMARK   72  A    between atoms: _187  and  _188
REMARK   73  A    between atoms: _187  and  _190
REMARK   74  A    between atoms: _190  and  _191
REMARK   75  A    between atoms: _196  and  _198
REMARK   76  A    between atoms: _198  and  _199
REMARK   77  A    between atoms: _198  and  _201
REMARK   78  A    between atoms: _201  and  _202
REMARK   79  A    between atoms: _207  and  _209
REMARK   80  A    between atoms: _209  and  _210
REMARK   81  A    between atoms: _209  and  _212
REMARK   82  A    between atoms: _212  and  _213
REMARK   83  A    between atoms: _213  and  _214
REMARK   84  A    between atoms: _214  and  _215
REMARK   85  A    between atoms: _215  and  _216
REMARK   86  A    between atoms: _220  and  _222
REMARK   87  A    between atoms: _222  and  _223
REMARK   88  A    between atoms: _222  and  _225
REMARK   89  A    between atoms: _225  and  _226
REMARK   90  A    between atoms: _230  and  _231
REMARK   91  A    between atoms: _236  and  _238
REMARK   92  A    between atoms: _238  and  _239
REMARK   93  A    between atoms: _242  and  _244
REMARK   94  A    between atoms: _244  and  _245
REMARK   95  A    between atoms: _244  and  _247
REMARK   96  A    between atoms: _247  and  _248
REMARK   97  A    between atoms: _254  and  _256
REMARK   98  A    between atoms: _256  and  _257
REMARK   99  A    between atoms: _256  and  _259
REMARK  100  A    between atoms: _259  and  _260
REMARK  101  A    between atoms: _260  and  _261
REMARK  102  A    between atoms: _264  and  _266
REMARK  103  A    between atoms: _266  and  _267
REMARK  104  A    between atoms: _266  and  _269
REMARK  105  A    between atoms: _269  and  _270
REMARK  106  A    between atoms: _272  and  _274
REMARK  107  A    between atoms: _274  and  _275
REMARK  108  A    between atoms: _277  and  _279
REMARK  109  A    between atoms: _279  and  _280
REMARK  110  A    between atoms: _283  and  _285
REMARK  111  A    between atoms: _285  and  _286
REMARK  112  A    between atoms: _285  and  _288
REMARK  113  A    between atoms: _288  and  _289
REMARK  114  A    between atoms: _292  and  _294
REMARK  115  A    between atoms: _294  and  _295
REMARK  116  A    between atoms: _294  and  _297
REMARK  117  A    between atoms: _297  and  _298
REMARK  118  A    between atoms: _301  and  _303
REMARK  119  A    between atoms: _303  and  _304
REMARK  120  A    between atoms: _303  and  _306
REMARK  121  A    between atoms: _306  and  _307
REMARK  122  A    between atoms: _307  and  _308
REMARK  123  A    between atoms: _313  and  _315
REMARK  124  A    between atoms: _315  and  _316
REMARK  125  A    between atoms: _315  and  _318
REMARK  126  A    between atoms: _321  and  _323
REMARK  127  A    between atoms: _323  and  _324
REMARK  128  A    between atoms: _326  and  _328
REMARK  129  A    between atoms: _328  and  _329
REMARK  130  A    between atoms: _331  and  _333
REMARK  131  A    between atoms: _333  and  _334
REMARK  132  A    between atoms: _333  and  _336
REMARK  133  A    between atoms: _336  and  _337
REMARK  134  A    between atoms: _340  and  _342
REMARK  135  A    between atoms: _342  and  _343
REMARK  136  A    between atoms: _346  and  _347
REMARK  137  A    between atoms: _352  and  _354
REMARK  138  A    between atoms: _354  and  _355
REMARK  139  A    between atoms: _354  and  _357
REMARK  140  A    between atoms: _357  and  _358
REMARK  141  A    between atoms: _358  and  _359
REMARK  142  A    between atoms: _361  and  _363
REMARK  143  A    between atoms: _363  and  _364
REMARK  144  A    between atoms: _363  and  _366
REMARK  145  A    between atoms: _366  and  _367
REMARK  146  A    between atoms: _370  and  _372
REMARK  147  A    between atoms: _372  and  _373
REMARK  148  A    between atoms: _375  and  _377
REMARK  149  A    between atoms: _377  and  _378
REMARK  150  A    between atoms: _377  and  _380
REMARK  151  A    between atoms: _380  and  _381
REMARK  152  A    between atoms: _381  and  _382
REMARK  153  A    between atoms: _387  and  _389
REMARK  154  A    between atoms: _389  and  _390
REMARK  155  A    between atoms: _389  and  _392
REMARK  156  A    between atoms: _392  and  _393
REMARK  157  A    between atoms: _398  and  _400
REMARK  158  A    between atoms: _400  and  _401
REMARK  159  A    between atoms: _400  and  _403
REMARK  160  A    between atoms: _403  and  _404
REMARK  161  A    between atoms: _409  and  _411
REMARK  162  A    between atoms: _411  and  _412
REMARK  163  A    between atoms: _411  and  _414
REMARK  164  A    between atoms: _414  and  _415
REMARK  165  A    between atoms: _420  and  _422
REMARK  166  A    between atoms: _422  and  _423
REMARK  167  A    between atoms: _422  and  _425
REMARK  168  A    between atoms: _425  and  _426
REMARK  169  A    between atoms: _432  and  _434
REMARK  170  A    between atoms: _434  and  _435
REMARK  171  A    between atoms: _438  and  _440
REMARK  172  A    between atoms: _440  and  _441
REMARK  173  A    between atoms: _444  and  _446
REMARK  174  A    between atoms: _446  and  _447
REMARK  175  A    between atoms: _446  and  _449
REMARK  176  A    between atoms: _449  and  _450
REMARK  177  A    between atoms: _460  and  _462
REMARK  178  A    between atoms: _462  and  _463
REMARK  179  A    between atoms: _462  and  _465
REMARK  180  A    between atoms: _465  and  _466
REMARK  181  A    between atoms: _466  and  _467
REMARK  182  A    between atoms: _472  and  _474
REMARK  183  A    between atoms: _474  and  _475
REMARK  184  A    between atoms: _474  and  _477
REMARK  185  A    between atoms: _477  and  _478
REMARK  186  A    between atoms: _484  and  _486
REMARK  187  A    between atoms: _486  and  _487
REMARK  188  A    between atoms: _486  and  _489
REMARK  189  A    between atoms: _489  and  _490
REMARK  190  A    between atoms: _500  and  _502
REMARK  191  A    between atoms: _502  and  _503
REMARK  192  A    between atoms: _502  and  _505
REMARK  193  A    between atoms: _505  and  _506
REMARK  194  A    between atoms: _506  and  _507
REMARK  195  A    between atoms: _512  and  _514
REMARK  196  A    between atoms: _514  and  _515
REMARK  197  A    between atoms: _514  and  _517
REMARK  198  A    between atoms: _520  and  _522
REMARK  199  A    between atoms: _522  and  _523
REMARK  200  A    between atoms: _525  and  _527
REMARK  201  A    between atoms: _527  and  _528
REMARK  202  A    between atoms: _530  and  _532
REMARK  203  A    between atoms: _532  and  _533
REMARK  204  A    between atoms: _532  and  _535
REMARK  205  A    between atoms: _535  and  _536
REMARK  206  A    between atoms: _540  and  _541
REMARK  207  A    between atoms: _546  and  _548
REMARK  208  A    between atoms: _548  and  _549
REMARK  209  A    between atoms: _548  and  _551
REMARK  210  A    between atoms: _551  and  _552
REMARK  211  A    between atoms: _552  and  _553
REMARK  212  A    between atoms: _555  and  _557
REMARK  213  A    between atoms: _557  and  _558
REMARK  214  A    between atoms: _557  and  _560
REMARK  215  A    between atoms: _560  and  _561
REMARK  216  A    between atoms: _566  and  _567
REMARK  217  A    between atoms: _569  and  _571
REMARK  218  A    between atoms: _571  and  _572
REMARK  219  A    between atoms: _571  and  _574
REMARK  220  A    between atoms: _574  and  _575
REMARK  221  A    between atoms: _575  and  _576
REMARK  222  A    between atoms: _576  and  _577
REMARK  223  A    between atoms: _586  and  _588
REMARK  224  A    between atoms: _588  and  _589
REMARK  225  A    between atoms: _588  and  _591
REMARK  226  A    between atoms: _591  and  _592
REMARK  227  A    between atoms: _597  and  _598
REMARK  228  A    between atoms: _600  and  _602
REMARK  229  A    between atoms: _602  and  _603
REMARK  230  A    between atoms: _602  and  _605
REMARK  231  A    between atoms: _605  and  _606
REMARK  232  A    between atoms: _606  and  _607
REMARK  233  A    between atoms: _610  and  _612
REMARK  234  A    between atoms: _612  and  _613
REMARK  235  A    between atoms: _612  and  _615
REMARK  236  A    between atoms: _615  and  _616
REMARK  237  A    between atoms: _616  and  _617
REMARK  238  A    between atoms: _617  and  _618
REMARK                            x       y       z     vdW  Elec       q    Type
REMARK                         _______ _______ _______ _____ _____    ______ ____
ROOT
ATOM      1  CB  GLN A   1      16.385  29.367  58.174  0.00  0.00    +0.035 C 
ENDROOT
BRANCH   1   2
ATOM      2  CA  GLN A   1      17.704  28.584  58.171  0.00  0.00    +0.134 C 
BRANCH   2   3
ATOM      3  N   GLN A   1      17.370  27.195  58.440  0.00  0.00    -0.239 NA
ATOM      4  H   GLN A   1      16.367  26.922  58.416  0.00  0.00    +0.142 HD
ENDBRANCH   2   3
BRANCH   2   5
ATOM      5  C   GLN A   1      18.767  29.197  59.111  0.00  0.00    +0.224 C 
ATOM      6  O   GLN A   1      19.775  29.742  58.637  0.00  0.00    -0.287 OA
ENDBRANCH   2   5
ENDBRANCH   1   2
BRANCH   1   7
ATOM      7  CG  GLN A   1      16.438  30.858  58.104  0.00  0.00    +0.087 C 
BRANCH   7   8
ATOM      8  CD  GLN A   1      14.961  31.468  58.226  0.00  0.00    +0.219 C 
ATOM      9  OE1 GLN A   1      14.511  31.859  59.331  0.00  0.00    -0.275 OA
ATOM     10  NE2 GLN A   1      14.224  31.489  57.111  0.00  0.00    -0.329 N 
ATOM     11 HE21 GLN A   1      13.245  31.837  57.142  0.00  0.00    +0.145 HD
ATOM     12 HE22 GLN A   1      14.630  31.157  56.213  0.00  0.00    +0.145 HD
ENDBRANCH   7   8
ENDBRANCH   1   7
TORSDOF 5
REMARK  Name = ../refined-set-2016/3gx0/3gx0_pocket.pdb
REMARK  238 active torsions:
REMARK  status: ('A' for Active; 'I' for Inactive)
REMARK    1  A    between atoms: _1  and  _3
REMARK    2  A    between atoms: _3  and  _4
REMARK    3  A    between atoms: _3  and  _6
REMARK    4  A    between atoms: _6  and  _7
REMARK    5  A    between atoms: _12  and  _13
REMARK    6  A    between atoms: _15  and  _17
REMARK    7  A    between atoms: _17  and  _18
REMARK    8  A    between atoms: _17  and  _20
REMARK    9  A    between atoms: _20  and  _21
REMARK   10  A    between atoms: _27  and  _29
REMARK   11  A    between atoms: _29  and  _30
REMARK   12  A    between atoms: _34  and  _35
REMARK   13  A    between atoms: _40  and  _42
REMARK   14  A    between atoms: _42  and  _43
REMARK   15  A    between atoms: _42  and  _45
REMARK   16  A    between atoms: _45  and  _46
REMARK   17  A    between atoms: _50  and  _51
REMARK   18  A    between atoms: _56  and  _58
REMARK   19  A    between atoms: _58  and  _59
REMARK   20  A    between atoms: _58  and  _61
REMARK   21  A    between atoms: _61  and  _62
REMARK   22  A    between atoms: _67  and  _69
REMARK   23  A    between atoms: _69  and  _70
REMARK   24  A    between atoms: _72  and  _74
REMARK   25  A    between atoms: _74  and  _75
REMARK   26  A    between atoms: _74  and  _77
REMARK   27  A    between atoms: _77  and  _78
REMARK   28  A    between atoms: _83  and  _85
REMARK   29  A    between atoms: _85  and  _86
REMARK   30  A    between atoms: _85  and  _88
REMARK   31  A    between atoms: _88  and  _89
REMARK   32  A    between atoms: _89  and  _90
REMARK   33  A    between atoms: _90  and  _91
REMARK   34  A    between atoms: _91  and  _92
REMARK   35  A    between atoms: _96  and  _98
REMARK   36  A    between atoms: _98  and  _99
REMARK   37  A    between atoms: _98  and  _101
REMARK   38  A    between atoms: _101  and  _102
REMARK   39  A    between atoms: _105  and  _107
REMARK   40  A    between atoms: _107  and  _108
REMARK   41  A    between atoms: _107  and  _110
REMARK   42  A    between atoms: _113  and  _115
REMARK   43  A    between atoms: _115  and  _116
REMARK   44  A    between atoms: _115  and  _118
REMARK   45  A    between atoms: _118  and  _119
REMARK   46  A    between atoms: _122  and  _124
REMARK   47  A    between atoms: _124  and  _125
REMARK   48  A    between atoms: _124  and  _127
REMARK   49  A    between atoms: _127  and  _128
REMARK   50  A    between atoms: _131  and  _133
REMARK   51  A    between atoms: _133  and  _134
REMARK   52  A    between atoms: _136  and  _138
REMARK   53  A    between atoms: _138  and  _139
REMARK   54  A    between atoms: _141  and  _143
REMARK   55  A    between atoms: _143  and  _144
REMARK   56  A    between atoms: _143  and  _146
REMARK   57  A    between atoms: _146  and  _147
REMARK   58  A    between atoms: _147  and  _148
REMARK   59  A    between atoms: _153  and  _155
REMARK   60  A    between atoms: _155  and  _156
REMARK   61  A    between atoms: _155  and  _158
REMARK   62  A    between atoms: _158  and  _159
REMARK   63  A    between atoms: _165  and  _167
REMARK   64  A    between atoms: _167  and  _168
REMARK   65  A    between atoms: _167  and  _170
REMARK   66  A    between atoms: _170  and  _171
REMARK   67  A    between atoms: _177  and  _179
REMARK   68  A    between atoms: _179  and  _180
REMARK   69  A    between atoms: _179  and  _182
REMARK   70  A    between atoms: _182  and  _183
REMARK   71  A    between atoms: _185  and  _187
REMARK   72  A    between atoms: _187  and  _188
REMARK   73  A    between atoms: _187  and  _190
REMARK   74  A    between atoms: _190  and  _191
REMARK   75  A    between atoms: _196  and  _198
REMARK   76  A    between atoms: _198  and  _199
REMARK   77  A    between atoms: _198  and  _201
REMARK   78  A    between atoms: _201  and  _202
REMARK   79  A    between atoms: _207  and  _209
REMARK   80  A    between atoms: _209  and  _210
REMARK   81  A    between atoms: _209  and  _212
REMARK   82  A    between atoms: _212  and  _213
REMARK   83  A    between atoms: _213  and  _214
REMARK   84  A    between atoms: _214  and  _215
REMARK   85  A    between atoms: _215  and  _216
REMARK   86  A    between atoms: _220  and  _222
REMARK   87  A    between atoms: _222  and  _223
REMARK   88  A    between atoms: _222  and  _225
REMARK   89  A    between atoms: _225  and  _226
REMARK   90  A    between atoms: _230  and  _231
REMARK   91  A    between atoms: _236  and  _238
REMARK   92  A    between atoms: _238  and  _239
REMARK   93  A    between atoms: _242  and  _244
REMARK   94  A    between atoms: _244  and  _245
REMARK   95  A    between atoms: _244  and  _247
REMARK   96  A    between atoms: _247  and  _248
REMARK   97  A    between atoms: _254  and  _256
REMARK   98  A    between atoms: _256  and  _257
REMARK   99  A    between atoms: _256  and  _259
REMARK  100  A    between atoms: _259  and  _260
REMARK  101  A    between atoms: _260  and  _261
REMARK  102  A    between atoms: _264  and  _266
REMARK  103  A    between atoms: _266  and  _267
REMARK  104  A    between atoms: _266  and  _269
REMARK  105  A    between atoms: _269  and  _270
REMARK  106  A    between atoms: _272  and  _274
REMARK  107  A    between atoms: _274  and  _275
REMARK  108  A    between atoms: _277  and  _279
REMARK  109  A    between atoms: _279  and  _280
REMARK  110  A    between atoms: _283  and  _285
REMARK  111  A    between atoms: _285  and  _286
REMARK  112  A    between atoms: _285  and  _288
REMARK  113  A    between atoms: _288  and  _289
REMARK  114  A    between atoms: _292  and  _294
REMARK  115  A    between atoms: _294  and  _295
REMARK  116  A    between atoms: _294  and  _297
REMARK  117  A    between atoms: _297  and  _298
REMARK  118  A    between atoms: _301  and  _303
REMARK  119  A    between atoms: _303  and  _304
REMARK  120  A    between atoms: _303  and  _306
REMARK  121  A    between atoms: _306  and  _307
REMARK  122  A    between atoms: _307  and  _308
REMARK  123  A    between atoms: _313  and  _315
REMARK  124  A    between atoms: _315  and  _316
REMARK  125  A    between atoms: _315  and  _318
REMARK  126  A    between atoms: _321  and  _323
REMARK  127  A    between atoms: _323  and  _324
REMARK  128  A    between atoms: _326  and  _328
REMARK  129  A    between atoms: _328  and  _329
REMARK  130  A    between atoms: _331  and  _333
REMARK  131  A    between atoms: _333  and  _334
REMARK  132  A    between atoms: _333  and  _336
REMARK  133  A    between atoms: _336  and  _337
REMARK  134  A    between atoms: _340  and  _342
REMARK  135  A    between atoms: _342  and  _343
REMARK  136  A    between atoms: _346  and  _347
REMARK  137  A    between atoms: _352  and  _354
REMARK  138  A    between atoms: _354  and  _355
REMARK  139  A    between atoms: _354  and  _357
REMARK  140  A    between atoms: _357  and  _358
REMARK  141  A    between atoms: _358  and  _359
REMARK  142  A    between atoms: _361  and  _363
REMARK  143  A    between atoms: _363  and  _364
REMARK  144  A    between atoms: _363  and  _366
REMARK  145  A    between atoms: _366  and  _367
REMARK  146  A    between atoms: _370  and  _372
REMARK  147  A    between atoms: _372  and  _373
REMARK  148  A    between atoms: _375  and  _377
REMARK  149  A    between atoms: _377  and  _378
REMARK  150  A    between atoms: _377  and  _380
REMARK  151  A    between atoms: _380  and  _381
REMARK  152  A    between atoms: _381  and  _382
REMARK  153  A    between atoms: _387  and  _389
REMARK  154  A    between atoms: _389  and  _390
REMARK  155  A    between atoms: _389  and  _392
REMARK  156  A    between atoms: _392  and  _393
REMARK  157  A    between atoms: _398  and  _400
REMARK  158  A    between atoms: _400  and  _401
REMARK  159  A    between atoms: _400  and  _403
REMARK  160  A    between atoms: _403  and  _404
REMARK  161  A    between atoms: _409  and  _411
REMARK  162  A    between atoms: _411  and  _412
REMARK  163  A    between atoms: _411  and  _414
REMARK  164  A    between atoms: _414  and  _415
REMARK  165  A    between atoms: _420  and  _422
REMARK  166  A    between atoms: _422  and  _423
REMARK  167  A    between atoms: _422  and  _425
REMARK  168  A    between atoms: _425  and  _426
REMARK  169  A    between atoms: _432  and  _434
REMARK  170  A    between atoms: _434  and  _435
REMARK  171  A    between atoms: _438  and  _440
REMARK  172  A    between atoms: _440  and  _441
REMARK  173  A    between atoms: _444  and  _446
REMARK  174  A    between atoms: _446  and  _447
REMARK  175  A    between atoms: _446  and  _449
REMARK  176  A    between atoms: _449  and  _450
REMARK  177  A    between atoms: _460  and  _462
REMARK  178  A    between atoms: _462  and  _463
REMARK  179  A    between atoms: _462  and  _465
REMARK  180  A    between atoms: _465  and  _466
REMARK  181  A    between atoms: _466  and  _467
REMARK  182  A    between atoms: _472  and  _474
REMARK  183  A    between atoms: _474  and  _475
REMARK  184  A    between atoms: _474  and  _477
REMARK  185  A    between atoms: _477  and  _478
REMARK  186  A    between atoms: _484  and  _486
REMARK  187  A    between atoms: _486  and  _487
REMARK  188  A    between atoms: _486  and  _489
REMARK  189  A    between atoms: _489  and  _490
REMARK  190  A    between atoms: _500  and  _502
REMARK  191  A    between atoms: _502  and  _503
REMARK  192  A    between atoms: _502  and  _505
REMARK  193  A    between atoms: _505  and  _506
REMARK  194  A    between atoms: _506  and  _507
REMARK  195  A    between atoms: _512  and  _514
REMARK  196  A    between atoms: _514  and  _515
REMARK  197  A    between atoms: _514  and  _517
REMARK  198  A    between atoms: _520  and  _522
REMARK  199  A    between atoms: _522  and  _523
REMARK  200  A    between atoms: _525  and  _527
REMARK  201  A    between atoms: _527  and  _528
REMARK  202  A    between atoms: _530  and  _532
REMARK  203  A    between atoms: _532  and  _533
REMARK  204  A    between atoms: _532  and  _535
REMARK  205  A    between atoms: _535  and  _536
REMARK  206  A    between atoms: _540  and  _541
REMARK  207  A    between atoms: _546  and  _548
REMARK  208  A    between atoms: _548  and  _549
REMARK  209  A    between atoms: _548  and  _551
REMARK  210  A    between atoms: _551  and  _552
REMARK  211  A    between atoms: _552  and  _553
REMARK  212  A    between atoms: _555  and  _557
REMARK  213  A    between atoms: _557  and  _558
REMARK  214  A    between atoms: _557  and  _560
REMARK  215  A    between atoms: _560  and  _561
REMARK  216  A    between atoms: _566  and  _567
REMARK  217  A    between atoms: _569  and  _571
REMARK  218  A    between atoms: _571  and  _572
REMARK  219  A    between atoms: _571  and  _574
REMARK  220  A    between atoms: _574  and  _575
REMARK  221  A    between atoms: _575  and  _576
REMARK  222  A    between atoms: _576  and  _577
REMARK  223  A    between atoms: _586  and  _588
REMARK  224  A    between atoms: _588  and  _589
REMARK  225  A    between atoms: _588  and  _591
REMARK  226  A    between atoms: _591  and  _592
REMARK  227  A    between atoms: _597  and  _598
REMARK  228  A    between atoms: _600  and  _602
REMARK  229  A    between atoms: _602  and  _603
REMARK  230  A    between atoms: _602  and  _605
REMARK  231  A    between atoms: _605  and  _606
REMARK  232  A    between atoms: _606  and  _607
REMARK  233  A    between atoms: _610  and  _612
REMARK  234  A    between atoms: _612  and  _613
REMARK  235  A    between atoms: _612  and  _615
REMARK  236  A    between atoms: _615  and  _616
REMARK  237  A    between atoms: _616  and  _617
REMARK  238  A    between atoms: _617  and  _618
REMARK                            x       y       z     vdW  Elec       q    Type
REMARK                         _______ _______ _______ _____ _____    ______ ____
ROOT
ATOM      1  CA  GLN A   3      25.534  30.162  61.811  0.00  0.00    +0.149 C 
ENDROOT
BRANCH   1   2
ATOM      2  C   GLN A   3      26.764  29.705  60.992  0.00  0.00    +0.241 C 
ATOM      3  O   GLN A   3      27.862  30.149  61.193  0.00  0.00    -0.273 OA
ATOM      4  N   VAL A   4      26.537  28.771  60.074  0.00  0.00    -0.297 N 
ATOM      5  H   VAL A   4      25.551  28.496  59.892  0.00  0.00    +0.150 HD
BRANCH   4   6
ATOM      6  CA  VAL A   4      27.580  28.110  59.308  0.00  0.00    +0.149 C 
BRANCH   6   7
ATOM      7  C   VAL A   4      28.144  29.060  58.249  0.00  0.00    +0.241 C 
ATOM      8  O   VAL A   4      29.341  29.053  58.019  0.00  0.00    -0.273 OA
ATOM      9  N   GLY A   5      27.278  29.883  57.632  0.00  0.00    -0.295 N 
ATOM     10  H   GLY A   5      26.276  29.848  57.908  0.00  0.00    +0.150 HD
BRANCH   9  11
ATOM     11  CA  GLY A   5      27.688  30.834  56.581  0.00  0.00    +0.176 C 
BRANCH  11  12
ATOM     12  C   GLY A   5      28.108  32.214  57.105  0.00  0.00    +0.243 C 
ATOM     13  N   GLY A   6      27.631  32.576  58.285  0.00  0.00    -0.295 N 
ATOM     14  H   GLY A   6      27.143  31.880  58.885  0.00  0.00    +0.150 HD
ATOM     15  O   GLY A   5      28.847  32.953  56.443  0.00  0.00    -0.273 OA
BRANCH  13  16
ATOM     16  CA  GLY A   6      27.790  33.957  58.746  0.00  0.00    +0.176 C 
BRANCH  16  17
ATOM     17  C   GLY A   6      28.484  34.013  60.070  0.00  0.00    +0.243 C 
ATOM     18  N   LEU A   7      27.773  33.602  61.125  0.00  0.00    -0.298 N 
ATOM     19  H   LEU A   7      26.812  33.230  60.984  0.00  0.00    +0.150 HD
ATOM     20  O   GLY A   6      29.660  34.377  60.137  0.00  0.00    -0.273 OA
BRANCH  18  21
ATOM     21  CA  LEU A   7      28.331  33.670  62.475  0.00  0.00    +0.137 C 
BRANCH  21  22
ATOM     22  C   LEU A   7      29.769  33.101  62.620  0.00  0.00    +0.227 C 
ATOM     23  O   LEU A   7      30.636  33.725  63.220  0.00  0.00    -0.286 OA
ENDBRANCH  21  22
BRANCH  21  24
ATOM     24  CB  LEU A   7      27.400  32.982  63.509  0.00  0.00    +0.028 C 
BRANCH  24  25
ATOM     25  CG  LEU A   7      27.822  33.240  64.968  0.00  0.00    +0.002 C 
ATOM     26  CD2 LEU A   7      27.221  32.231  65.919  0.00  0.00    +0.000 C 
ATOM     27  CD1 LEU A   7      27.441  34.681  65.352  0.00  0.00    +0.000 C 
ENDBRANCH  24  25
ENDBRANCH  21  24
ENDBRANCH  18  21
ENDBRANCH  16  17
ENDBRANCH  13  16
ENDBRANCH  11  12
ENDBRANCH   9  11
ENDBRANCH   6   7
BRANCH   6  28
ATOM     28  CB  VAL A   4      27.049  26.833  58.600  0.00  0.00    +0.027 C 
ATOM     29  CG2 VAL A   4      26.710  25.683  59.622  0.00  0.00    +0.002 C 
ATOM     30  CG1 VAL A   4      28.038  26.362  57.511  0.00  0.00    +0.002 C 
ENDBRANCH   6  28
ENDBRANCH   4   6
ENDBRANCH   1   2
BRANCH   1  32
ATOM     31  C   TRP A   2      24.312  31.229  59.922  0.00  0.00    +0.241 C 
ATOM     32  N   GLN A   3      24.358  30.331  60.904  0.00  0.00    -0.297 N 
ATOM     33  H   GLN A   3      23.532  29.715  61.047  0.00  0.00    +0.150 HD
ATOM     34  O   TRP A   2      25.206  32.040  59.723  0.00  0.00    -0.273 OA
BRANCH  31  35
ATOM     35  CA  TRP A   2      23.032  31.248  59.065  0.00  0.00    +0.153 C 
BRANCH  35  37
ATOM     36  C   PHE A   1      23.431  29.080  58.023  0.00  0.00    +0.239 C 
ATOM     37  N   TRP A   2      22.596  29.888  58.673  0.00  0.00    -0.297 N 
ATOM     38  H   TRP A   2      21.636  29.564  58.906  0.00  0.00    +0.150 HD
ATOM     39  O   PHE A   1      24.602  29.438  57.738  0.00  0.00    -0.274 OA
BRANCH  36  40
ATOM     40  CA  PHE A   1      22.920  27.635  57.752  0.00  0.00    +0.149 C 
BRANCH  40  41
ATOM     41  N   PHE A   1      22.132  27.105  58.887  0.00  0.00    -0.238 NA
ATOM     42  H   PHE A   1      21.150  26.799  58.732  0.00  0.00    +0.142 HD
ENDBRANCH  40  41
BRANCH  40  43
ATOM     43  CB  PHE A   1      22.086  27.532  56.492  0.00  0.00    +0.053 C 
BRANCH  43  44
ATOM     44  CG  PHE A   1      22.109  26.140  55.846  0.00  0.00    -0.020 A 
ATOM     45  CD2 PHE A   1      21.099  25.226  56.088  0.00  0.00    -0.004 A 
ATOM     46  CE2 PHE A   1      21.094  23.987  55.470  0.00  0.00    -0.000 A 
ATOM     47  CZ  PHE A   1      22.156  23.624  54.604  0.00  0.00    -0.000 A 
ATOM     48  CE1 PHE A   1      23.162  24.538  54.351  0.00  0.00    -0.000 A 
ATOM     49  CD1 PHE A   1      23.146  25.776  54.973  0.00  0.00    -0.004 A 
ENDBRANCH  43  44
ENDBRANCH  40  43
ENDBRANCH  36  40
ENDBRANCH  35  37
BRANCH  35  50
ATOM     50  CB  TRP A   2      21.914  32.011  59.793  0.00  0.00    +0.057 C 
BRANCH  50  51
ATOM     51  CG  TRP A   2      22.354  33.366  60.263  0.00  0.00    -0.002 A 
ATOM     52  CD2 TRP A   2      22.829  33.711  61.582  0.00  0.00    +0.013 A 
ATOM     53  CE3 TRP A   2      22.980  32.991  62.788  0.00  0.00    +0.001 A 
ATOM     54  CZ3 TRP A   2      23.438  33.669  63.906  0.00  0.00    +0.000 A 
ATOM     55  CH2 TRP A   2      23.751  35.059  63.846  0.00  0.00    +0.001 A 
ATOM     56  CZ2 TRP A   2      23.563  35.789  62.698  0.00  0.00    +0.017 A 
ATOM     57  CE2 TRP A   2      23.099  35.103  61.573  0.00  0.00    +0.056 A 
ATOM     58  NE1 TRP A   2      22.820  35.567  60.311  0.00  0.00    -0.352 N 
ATOM     59  HE1 TRP A   2      22.915  36.555  60.001  0.00  0.00    +0.166 HD
ATOM     60  CD1 TRP A   2      22.395  34.524  59.518  0.00  0.00    +0.068 A 
ENDBRANCH  50  51
ENDBRANCH  35  50
ENDBRANCH  31  35
ENDBRANCH   1  32
BRANCH   1  61
ATOM     61  CB  GLN A   3      25.146  29.091  62.880  0.00  0.00    +0.039 C 
BRANCH  61  62
ATOM     62  CG  GLN A   3      26.182  28.721  63.919  0.00  0.00    +0.087 C 
BRANCH  62  63
ATOM     63  CD  GLN A   3      27.452  28.136  63.329  0.00  0.00    +0.219 C 
ATOM     64  NE2 GLN A   3      28.606  28.811  63.566  0.00  0.00    -0.329 N 
ATOM     65 HE21 GLN A   3      28.594  29.675  64.145  0.00  0.00    +0.145 HD
ATOM     66 HE22 GLN A   3      29.502  28.464  63.169  0.00  0.00    +0.145 HD
ATOM     67  OE1 GLN A   3      27.408  27.092  62.641  0.00  0.00    -0.275 OA
ENDBRANCH  62  63
ENDBRANCH  61  62
ENDBRANCH   1  61
TORSDOF 24
REMARK  Name = ../refined-set-2016/3gx0/3gx0_pocket.pdb
REMARK  238 active torsions:
REMARK  status: ('A' for Active; 'I' for Inactive)
REMARK    1  A    between atoms: _1  and  _3
REMARK    2  A    between atoms: _3  and  _4
REMARK    3  A    between atoms: _3  and  _6
REMARK    4  A    between atoms: _6  and  _7
REMARK    5  A    between atoms: _12  and  _13
REMARK    6  A    between atoms: _15  and  _17
REMARK    7  A    between atoms: _17  and  _18
REMARK    8  A    between atoms: _17  and  _20
REMARK    9  A    between atoms: _20  and  _21
REMARK   10  A    between atoms: _27  and  _29
REMARK   11  A    between atoms: _29  and  _30
REMARK   12  A    between atoms: _34  and  _35
REMARK   13  A    between atoms: _40  and  _42
REMARK   14  A    between atoms: _42  and  _43
REMARK   15  A    between atoms: _42  and  _45
REMARK   16  A    between atoms: _45  and  _46
REMARK   17  A    between atoms: _50  and  _51
REMARK   18  A    between atoms: _56  and  _58
REMARK   19  A    between atoms: _58  and  _59
REMARK   20  A    between atoms: _58  and  _61
REMARK   21  A    between atoms: _61  and  _62
REMARK   22  A    between atoms: _67  and  _69
REMARK   23  A    between atoms: _69  and  _70
REMARK   24  A    between atoms: _72  and  _74
REMARK   25  A    between atoms: _74  and  _75
REMARK   26  A    between atoms: _74  and  _77
REMARK   27  A    between atoms: _77  and  _78
REMARK   28  A    between atoms: _83  and  _85
REMARK   29  A    between atoms: _85  and  _86
REMARK   30  A    between atoms: _85  and  _88
REMARK   31  A    between atoms: _88  and  _89
REMARK   32  A    between atoms: _89  and  _90
REMARK   33  A    between atoms: _90  and  _91
REMARK   34  A    between atoms: _91  and  _92
REMARK   35  A    between atoms: _96  and  _98
REMARK   36  A    between atoms: _98  and  _99
REMARK   37  A    between atoms: _98  and  _101
REMARK   38  A    between atoms: _101  and  _102
REMARK   39  A    between atoms: _105  and  _107
REMARK   40  A    between atoms: _107  and  _108
REMARK   41  A    between atoms: _107  and  _110
REMARK   42  A    between atoms: _113  and  _115
REMARK   43  A    between atoms: _115  and  _116
REMARK   44  A    between atoms: _115  and  _118
REMARK   45  A    between atoms: _118  and  _119
REMARK   46  A    between atoms: _122  and  _124
REMARK   47  A    between atoms: _124  and  _125
REMARK   48  A    between atoms: _124  and  _127
REMARK   49  A    between atoms: _127  and  _128
REMARK   50  A    between atoms: _131  and  _133
REMARK   51  A    between atoms: _133  and  _134
REMARK   52  A    between atoms: _136  and  _138
REMARK   53  A    between atoms: _138  and  _139
REMARK   54  A    between atoms: _141  and  _143
REMARK   55  A    between atoms: _143  and  _144
REMARK   56  A    between atoms: _143  and  _146
REMARK   57  A    between atoms: _146  and  _147
REMARK   58  A    between atoms: _147  and  _148
REMARK   59  A    between atoms: _153  and  _155
REMARK   60  A    between atoms: _155  and  _156
REMARK   61  A    between atoms: _155  and  _158
REMARK   62  A    between atoms: _158  and  _159
REMARK   63  A    between atoms: _165  and  _167
REMARK   64  A    between atoms: _167  and  _168
REMARK   65  A    between atoms: _167  and  _170
REMARK   66  A    between atoms: _170  and  _171
REMARK   67  A    between atoms: _177  and  _179
REMARK   68  A    between atoms: _179  and  _180
REMARK   69  A    between atoms: _179  and  _182
REMARK   70  A    between atoms: _182  and  _183
REMARK   71  A    between atoms: _185  and  _187
REMARK   72  A    between atoms: _187  and  _188
REMARK   73  A    between atoms: _187  and  _190
REMARK   74  A    between atoms: _190  and  _191
REMARK   75  A    between atoms: _196  and  _198
REMARK   76  A    between atoms: _198  and  _199
REMARK   77  A    between atoms: _198  and  _201
REMARK   78  A    between atoms: _201  and  _202
REMARK   79  A    between atoms: _207  and  _209
REMARK   80  A    between atoms: _209  and  _210
REMARK   81  A    between atoms: _209  and  _212
REMARK   82  A    between atoms: _212  and  _213
REMARK   83  A    between atoms: _213  and  _214
REMARK   84  A    between atoms: _214  and  _215
REMARK   85  A    between atoms: _215  and  _216
REMARK   86  A    between atoms: _220  and  _222
REMARK   87  A    between atoms: _222  and  _223
REMARK   88  A    between atoms: _222  and  _225
REMARK   89  A    between atoms: _225  and  _226
REMARK   90  A    between atoms: _230  and  _231
REMARK   91  A    between atoms: _236  and  _238
REMARK   92  A    between atoms: _238  and  _239
REMARK   93  A    between atoms: _242  and  _244
REMARK   94  A    between atoms: _244  and  _245
REMARK   95  A    between atoms: _244  and  _247
REMARK   96  A    between atoms: _247  and  _248
REMARK   97  A    between atoms: _254  and  _256
REMARK   98  A    between atoms: _256  and  _257
REMARK   99  A    between atoms: _256  and  _259
REMARK  100  A    between atoms: _259  and  _260
REMARK  101  A    between atoms: _260  and  _261
REMARK  102  A    between atoms: _264  and  _266
REMARK  103  A    between atoms: _266  and  _267
REMARK  104  A    between atoms: _266  and  _269
REMARK  105  A    between atoms: _269  and  _270
REMARK  106  A    between atoms: _272  and  _274
REMARK  107  A    between atoms: _274  and  _275
REMARK  108  A    between atoms: _277  and  _279
REMARK  109  A    between atoms: _279  and  _280
REMARK  110  A    between atoms: _283  and  _285
REMARK  111  A    between atoms: _285  and  _286
REMARK  112  A    between atoms: _285  and  _288
REMARK  113  A    between atoms: _288  and  _289
REMARK  114  A    between atoms: _292  and  _294
REMARK  115  A    between atoms: _294  and  _295
REMARK  116  A    between atoms: _294  and  _297
REMARK  117  A    between atoms: _297  and  _298
REMARK  118  A    between atoms: _301  and  _303
REMARK  119  A    between atoms: _303  and  _304
REMARK  120  A    between atoms: _303  and  _306
REMARK  121  A    between atoms: _306  and  _307
REMARK  122  A    between atoms: _307  and  _308
REMARK  123  A    between atoms: _313  and  _315
REMARK  124  A    between atoms: _315  and  _316
REMARK  125  A    between atoms: _315  and  _318
REMARK  126  A    between atoms: _321  and  _323
REMARK  127  A    between atoms: _323  and  _324
REMARK  128  A    between atoms: _326  and  _328
REMARK  129  A    between atoms: _328  and  _329
REMARK  130  A    between atoms: _331  and  _333
REMARK  131  A    between atoms: _333  and  _334
REMARK  132  A    between atoms: _333  and  _336
REMARK  133  A    between atoms: _336  and  _337
REMARK  134  A    between atoms: _340  and  _342
REMARK  135  A    between atoms: _342  and  _343
REMARK  136  A    between atoms: _346  and  _347
REMARK  137  A    between atoms: _352  and  _354
REMARK  138  A    between atoms: _354  and  _355
REMARK  139  A    between atoms: _354  and  _357
REMARK  140  A    between atoms: _357  and  _358
REMARK  141  A    between atoms: _358  and  _359
REMARK  142  A    between atoms: _361  and  _363
REMARK  143  A    between atoms: _363  and  _364
REMARK  144  A    between atoms: _363  and  _366
REMARK  145  A    between atoms: _366  and  _367
REMARK  146  A    between atoms: _370  and  _372
REMARK  147  A    between atoms: _372  and  _373
REMARK  148  A    between atoms: _375  and  _377
REMARK  149  A    between atoms: _377  and  _378
REMARK  150  A    between atoms: _377  and  _380
REMARK  151  A    between atoms: _380  and  _381
REMARK  152  A    between atoms: _381  and  _382
REMARK  153  A    between atoms: _387  and  _389
REMARK  154  A    between atoms: _389  and  _390
REMARK  155  A    between atoms: _389  and  _392
REMARK  156  A    between atoms: _392  and  _393
REMARK  157  A    between atoms: _398  and  _400
REMARK  158  A    between atoms: _400  and  _401
REMARK  159  A    between atoms: _400  and  _403
REMARK  160  A    between atoms: _403  and  _404
REMARK  161  A    between atoms: _409  and  _411
REMARK  162  A    between atoms: _411  and  _412
REMARK  163  A    between atoms: _411  and  _414
REMARK  164  A    between atoms: _414  and  _415
REMARK  165  A    between atoms: _420  and  _422
REMARK  166  A    between atoms: _422  and  _423
REMARK  167  A    between atoms: _422  and  _425
REMARK  168  A    between atoms: _425  and  _426
REMARK  169  A    between atoms: _432  and  _434
REMARK  170  A    between atoms: _434  and  _435
REMARK  171  A    between atoms: _438  and  _440
REMARK  172  A    between atoms: _440  and  _441
REMARK  173  A    between atoms: _444  and  _446
REMARK  174  A    between atoms: _446  and  _447
REMARK  175  A    between atoms: _446  and  _449
REMARK  176  A    between atoms: _449  and  _450
REMARK  177  A    between atoms: _460  and  _462
REMARK  178  A    between atoms: _462  and  _463
REMARK  179  A    between atoms: _462  and  _465
REMARK  180  A    between atoms: _465  and  _466
REMARK  181  A    between atoms: _466  and  _467
REMARK  182  A    between atoms: _472  and  _474
REMARK  183  A    between atoms: _474  and  _475
REMARK  184  A    between atoms: _474  and  _477
REMARK  185  A    between atoms: _477  and  _478
REMARK  186  A    between atoms: _484  and  _486
REMARK  187  A    between atoms: _486  and  _487
REMARK  188  A    between atoms: _486  and  _489
REMARK  189  A    between atoms: _489  and  _490
REMARK  190  A    between atoms: _500  and  _502
REMARK  191  A    between atoms: _502  and  _503
REMARK  192  A    between atoms: _502  and  _505
REMARK  193  A    between atoms: _505  and  _506
REMARK  194  A    between atoms: _506  and  _507
REMARK  195  A    between atoms: _512  and  _514
REMARK  196  A    between atoms: _514  and  _515
REMARK  197  A    between atoms: _514  and  _517
REMARK  198  A    between atoms: _520  and  _522
REMARK  199  A    between atoms: _522  and  _523
REMARK  200  A    between atoms: _525  and  _527
REMARK  201  A    between atoms: _527  and  _528
REMARK  202  A    between atoms: _530  and  _532
REMARK  203  A    between atoms: _532  and  _533
REMARK  204  A    between atoms: _532  and  _535
REMARK  205  A    between atoms: _535  and  _536
REMARK  206  A    between atoms: _540  and  _541
REMARK  207  A    between atoms: _546  and  _548
REMARK  208  A    between atoms: _548  and  _549
REMARK  209  A    between atoms: _548  and  _551
REMARK  210  A    between atoms: _551  and  _552
REMARK  211  A    between atoms: _552  and  _553
REMARK  212  A    between atoms: _555  and  _557
REMARK  213  A    between atoms: _557  and  _558
REMARK  214  A    between atoms: _557  and  _560
REMARK  215  A    between atoms: _560  and  _561
REMARK  216  A    between atoms: _566  and  _567
REMARK  217  A    between atoms: _569  and  _571
REMARK  218  A    between atoms: _571  and  _572
REMARK  219  A    between atoms: _571  and  _574
REMARK  220  A    between atoms: _574  and  _575
REMARK  221  A    between atoms: _575  and  _576
REMARK  222  A    between atoms: _576  and  _577
REMARK  223  A    between atoms: _586  and  _588
REMARK  224  A    between atoms: _588  and  _589
REMARK  225  A    between atoms: _588  and  _591
REMARK  226  A    between atoms: _591  and  _592
REMARK  227  A    between atoms: _597  and  _598
REMARK  228  A    between atoms: _600  and  _602
REMARK  229  A    between atoms: _602  and  _603
REMARK  230  A    between atoms: _602  and  _605
REMARK  231  A    between atoms: _605  and  _606
REMARK  232  A    between atoms: _606  and  _607
REMARK  233  A    between atoms: _610  and  _612
REMARK  234  A    between atoms: _612  and  _613
REMARK  235  A    between atoms: _612  and  _615
REMARK  236  A    between atoms: _615  and  _616
REMARK  237  A    between atoms: _616  and  _617
REMARK  238  A    between atoms: _617  and  _618
REMARK                            x       y       z     vdW  Elec       q    Type
REMARK                         _______ _______ _______ _____ _____    ______ ____
ROOT
ATOM      1  C   PRO A   1      33.492  33.839  59.828  0.00  0.00    +0.239 C 
ATOM      2  N   MET A   2      32.505  34.670  60.137  0.00  0.00    -0.298 N 
ATOM      3  H   MET A   2      31.517  34.344  60.133  0.00  0.00    +0.150 HD
ATOM      4  O   PRO A   1      34.657  34.163  59.944  0.00  0.00    -0.274 OA
ENDROOT
BRANCH   1   9
ATOM      5  N   PRO A   1      32.118  31.809  60.232  0.00  0.00    -0.210 NA
ATOM      6  CD  PRO A   1      30.989  31.267  59.441  0.00  0.00    +0.089 C 
ATOM      7  CG  PRO A   1      31.487  31.332  58.016  0.00  0.00    +0.021 C 
ATOM      8  CB  PRO A   1      32.546  32.376  57.938  0.00  0.00    +0.028 C 
ATOM      9  CA  PRO A   1      33.152  32.420  59.372  0.00  0.00    +0.149 C 
ENDBRANCH   1   9
BRANCH   2  10
ATOM     10  CA  MET A   2      32.832  36.050  60.483  0.00  0.00    +0.138 C 
BRANCH  10  11
ATOM     11  C   MET A   2      33.467  36.267  61.869  0.00  0.00    +0.227 C 
ATOM     12  O   MET A   2      34.364  37.094  62.029  0.00  0.00    -0.286 OA
ENDBRANCH  10  11
BRANCH  10  13
ATOM     13  CB  MET A   2      31.646  36.974  60.234  0.00  0.00    +0.039 C 
BRANCH  13  14
ATOM     14  CG  MET A   2      31.236  37.033  58.789  0.00  0.00    +0.060 C 
BRANCH  14  15
ATOM     15  SD  MET A   2      32.563  37.608  57.698  0.00  0.00    -0.139 S 
ATOM     16  CE  MET A   2      31.765  37.466  56.105  0.00  0.00    +0.069 C 
ENDBRANCH  14  15
ENDBRANCH  13  14
ENDBRANCH  10  13
ENDBRANCH   2  10
TORSDOF 6
REMARK  Name = ../refined-set-2016/3gx0/3gx0_pocket.pdb
REMARK  238 active torsions:
REMARK  status: ('A' for Active; 'I' for Inactive)
REMARK    1  A    between atoms: _1  and  _3
REMARK    2  A    between atoms: _3  and  _4
REMARK    3  A    between atoms: _3  and  _6
REMARK    4  A    between atoms: _6  and  _7
REMARK    5  A    between atoms: _12  and  _13
REMARK    6  A    between atoms: _15  and  _17
REMARK    7  A    between atoms: _17  and  _18
REMARK    8  A    between atoms: _17  and  _20
REMARK    9  A    between atoms: _20  and  _21
REMARK   10  A    between atoms: _27  and  _29
REMARK   11  A    between atoms: _29  and  _30
REMARK   12  A    between atoms: _34  and  _35
REMARK   13  A    between atoms: _40  and  _42
REMARK   14  A    between atoms: _42  and  _43
REMARK   15  A    between atoms: _42  and  _45
REMARK   16  A    between atoms: _45  and  _46
REMARK   17  A    between atoms: _50  and  _51
REMARK   18  A    between atoms: _56  and  _58
REMARK   19  A    between atoms: _58  and  _59
REMARK   20  A    between atoms: _58  and  _61
REMARK   21  A    between atoms: _61  and  _62
REMARK   22  A    between atoms: _67  and  _69
REMARK   23  A    between atoms: _69  and  _70
REMARK   24  A    between atoms: _72  and  _74
REMARK   25  A    between atoms: _74  and  _75
REMARK   26  A    between atoms: _74  and  _77
REMARK   27  A    between atoms: _77  and  _78
REMARK   28  A    between atoms: _83  and  _85
REMARK   29  A    between atoms: _85  and  _86
REMARK   30  A    between atoms: _85  and  _88
REMARK   31  A    between atoms: _88  and  _89
REMARK   32  A    between atoms: _89  and  _90
REMARK   33  A    between atoms: _90  and  _91
REMARK   34  A    between atoms: _91  and  _92
REMARK   35  A    between atoms: _96  and  _98
REMARK   36  A    between atoms: _98  and  _99
REMARK   37  A    between atoms: _98  and  _101
REMARK   38  A    between atoms: _101  and  _102
REMARK   39  A    between atoms: _105  and  _107
REMARK   40  A    between atoms: _107  and  _108
REMARK   41  A    between atoms: _107  and  _110
REMARK   42  A    between atoms: _113  and  _115
REMARK   43  A    between atoms: _115  and  _116
REMARK   44  A    between atoms: _115  and  _118
REMARK   45  A    between atoms: _118  and  _119
REMARK   46  A    between atoms: _122  and  _124
REMARK   47  A    between atoms: _124  and  _125
REMARK   48  A    between atoms: _124  and  _127
REMARK   49  A    between atoms: _127  and  _128
REMARK   50  A    between atoms: _131  and  _133
REMARK   51  A    between atoms: _133  and  _134
REMARK   52  A    between atoms: _136  and  _138
REMARK   53  A    between atoms: _138  and  _139
REMARK   54  A    between atoms: _141  and  _143
REMARK   55  A    between atoms: _143  and  _144
REMARK   56  A    between atoms: _143  and  _146
REMARK   57  A    between atoms: _146  and  _147
REMARK   58  A    between atoms: _147  and  _148
REMARK   59  A    between atoms: _153  and  _155
REMARK   60  A    between atoms: _155  and  _156
REMARK   61  A    between atoms: _155  and  _158
REMARK   62  A    between atoms: _158  and  _159
REMARK   63  A    between atoms: _165  and  _167
REMARK   64  A    between atoms: _167  and  _168
REMARK   65  A    between atoms: _167  and  _170
REMARK   66  A    between atoms: _170  and  _171
REMARK   67  A    between atoms: _177  and  _179
REMARK   68  A    between atoms: _179  and  _180
REMARK   69  A    between atoms: _179  and  _182
REMARK   70  A    between atoms: _182  and  _183
REMARK   71  A    between atoms: _185  and  _187
REMARK   72  A    between atoms: _187  and  _188
REMARK   73  A    between atoms: _187  and  _190
REMARK   74  A    between atoms: _190  and  _191
REMARK   75  A    between atoms: _196  and  _198
REMARK   76  A    between atoms: _198  and  _199
REMARK   77  A    between atoms: _198  and  _201
REMARK   78  A    between atoms: _201  and  _202
REMARK   79  A    between atoms: _207  and  _209
REMARK   80  A    between atoms: _209  and  _210
REMARK   81  A    between atoms: _209  and  _212
REMARK   82  A    between atoms: _212  and  _213
REMARK   83  A    between atoms: _213  and  _214
REMARK   84  A    between atoms: _214  and  _215
REMARK   85  A    between atoms: _215  and  _216
REMARK   86  A    between atoms: _220  and  _222
REMARK   87  A    between atoms: _222  and  _223
REMARK   88  A    between atoms: _222  and  _225
REMARK   89  A    between atoms: _225  and  _226
REMARK   90  A    between atoms: _230  and  _231
REMARK   91  A    between atoms: _236  and  _238
REMARK   92  A    between atoms: _238  and  _239
REMARK   93  A    between atoms: _242  and  _244
REMARK   94  A    between atoms: _244  and  _245
REMARK   95  A    between atoms: _244  and  _247
REMARK   96  A    between atoms: _247  and  _248
REMARK   97  A    between atoms: _254  and  _256
REMARK   98  A    between atoms: _256  and  _257
REMARK   99  A    between atoms: _256  and  _259
REMARK  100  A    between atoms: _259  and  _260
REMARK  101  A    between atoms: _260  and  _261
REMARK  102  A    between atoms: _264  and  _266
REMARK  103  A    between atoms: _266  and  _267
REMARK  104  A    between atoms: _266  and  _269
REMARK  105  A    between atoms: _269  and  _270
REMARK  106  A    between atoms: _272  and  _274
REMARK  107  A    between atoms: _274  and  _275
REMARK  108  A    between atoms: _277  and  _279
REMARK  109  A    between atoms: _279  and  _280
REMARK  110  A    between atoms: _283  and  _285
REMARK  111  A    between atoms: _285  and  _286
REMARK  112  A    between atoms: _285  and  _288
REMARK  113  A    between atoms: _288  and  _289
REMARK  114  A    between atoms: _292  and  _294
REMARK  115  A    between atoms: _294  and  _295
REMARK  116  A    between atoms: _294  and  _297
REMARK  117  A    between atoms: _297  and  _298
REMARK  118  A    between atoms: _301  and  _303
REMARK  119  A    between atoms: _303  and  _304
REMARK  120  A    between atoms: _303  and  _306
REMARK  121  A    between atoms: _306  and  _307
REMARK  122  A    between atoms: _307  and  _308
REMARK  123  A    between atoms: _313  and  _315
REMARK  124  A    between atoms: _315  and  _316
REMARK  125  A    between atoms: _315  and  _318
REMARK  126  A    between atoms: _321  and  _323
REMARK  127  A    between atoms: _323  and  _324
REMARK  128  A    between atoms: _326  and  _328
REMARK  129  A    between atoms: _328  and  _329
REMARK  130  A    between atoms: _331  and  _333
REMARK  131  A    between atoms: _333  and  _334
REMARK  132  A    between atoms: _333  and  _336
REMARK  133  A    between atoms: _336  and  _337
REMARK  134  A    between atoms: _340  and  _342
REMARK  135  A    between atoms: _342  and  _343
REMARK  136  A    between atoms: _346  and  _347
REMARK  137  A    between atoms: _352  and  _354
REMARK  138  A    between atoms: _354  and  _355
REMARK  139  A    between atoms: _354  and  _357
REMARK  140  A    between atoms: _357  and  _358
REMARK  141  A    between atoms: _358  and  _359
REMARK  142  A    between atoms: _361  and  _363
REMARK  143  A    between atoms: _363  and  _364
REMARK  144  A    between atoms: _363  and  _366
REMARK  145  A    between atoms: _366  and  _367
REMARK  146  A    between atoms: _370  and  _372
REMARK  147  A    between atoms: _372  and  _373
REMARK  148  A    between atoms: _375  and  _377
REMARK  149  A    between atoms: _377  and  _378
REMARK  150  A    between atoms: _377  and  _380
REMARK  151  A    between atoms: _380  and  _381
REMARK  152  A    between atoms: _381  and  _382
REMARK  153  A    between atoms: _387  and  _389
REMARK  154  A    between atoms: _389  and  _390
REMARK  155  A    between atoms: _389  and  _392
REMARK  156  A    between atoms: _392  and  _393
REMARK  157  A    between atoms: _398  and  _400
REMARK  158  A    between atoms: _400  and  _401
REMARK  159  A    between atoms: _400  and  _403
REMARK  160  A    between atoms: _403  and  _404
REMARK  161  A    between atoms: _409  and  _411
REMARK  162  A    between atoms: _411  and  _412
REMARK  163  A    between atoms: _411  and  _414
REMARK  164  A    between atoms: _414  and  _415
REMARK  165  A    between atoms: _420  and  _422
REMARK  166  A    between atoms: _422  and  _423
REMARK  167  A    between atoms: _422  and  _425
REMARK  168  A    between atoms: _425  and  _426
REMARK  169  A    between atoms: _432  and  _434
REMARK  170  A    between atoms: _434  and  _435
REMARK  171  A    between atoms: _438  and  _440
REMARK  172  A    between atoms: _440  and  _441
REMARK  173  A    between atoms: _444  and  _446
REMARK  174  A    between atoms: _446  and  _447
REMARK  175  A    between atoms: _446  and  _449
REMARK  176  A    between atoms: _449  and  _450
REMARK  177  A    between atoms: _460  and  _462
REMARK  178  A    between atoms: _462  and  _463
REMARK  179  A    between atoms: _462  and  _465
REMARK  180  A    between atoms: _465  and  _466
REMARK  181  A    between atoms: _466  and  _467
REMARK  182  A    between atoms: _472  and  _474
REMARK  183  A    between atoms: _474  and  _475
REMARK  184  A    between atoms: _474  and  _477
REMARK  185  A    between atoms: _477  and  _478
REMARK  186  A    between atoms: _484  and  _486
REMARK  187  A    between atoms: _486  and  _487
REMARK  188  A    between atoms: _486  and  _489
REMARK  189  A    between atoms: _489  and  _490
REMARK  190  A    between atoms: _500  and  _502
REMARK  191  A    between atoms: _502  and  _503
REMARK  192  A    between atoms: _502  and  _505
REMARK  193  A    between atoms: _505  and  _506
REMARK  194  A    between atoms: _506  and  _507
REMARK  195  A    between atoms: _512  and  _514
REMARK  196  A    between atoms: _514  and  _515
REMARK  197  A    between atoms: _514  and  _517
REMARK  198  A    between atoms: _520  and  _522
REMARK  199  A    between atoms: _522  and  _523
REMARK  200  A    between atoms: _525  and  _527
REMARK  201  A    between atoms: _527  and  _528
REMARK  202  A    between atoms: _530  and  _532
REMARK  203  A    between atoms: _532  and  _533
REMARK  204  A    between atoms: _532  and  _535
REMARK  205  A    between atoms: _535  and  _536
REMARK  206  A    between atoms: _540  and  _541
REMARK  207  A    between atoms: _546  and  _548
REMARK  208  A    between atoms: _548  and  _549
REMARK  209  A    between atoms: _548  and  _551
REMARK  210  A    between atoms: _551  and  _552
REMARK  211  A    between atoms: _552  and  _553
REMARK  212  A    between atoms: _555  and  _557
REMARK  213  A    between atoms: _557  and  _558
REMARK  214  A    between atoms: _557  and  _560
REMARK  215  A    between atoms: _560  and  _561
REMARK  216  A    between atoms: _566  and  _567
REMARK  217  A    between atoms: _569  and  _571
REMARK  218  A    between atoms: _571  and  _572
REMARK  219  A    between atoms: _571  and  _574
REMARK  220  A    between atoms: _574  and  _575
REMARK  221  A    between atoms: _575  and  _576
REMARK  222  A    between atoms: _576  and  _577
REMARK  223  A    between atoms: _586  and  _588
REMARK  224  A    between atoms: _588  and  _589
REMARK  225  A    between atoms: _588  and  _591
REMARK  226  A    between atoms: _591  and  _592
REMARK  227  A    between atoms: _597  and  _598
REMARK  228  A    between atoms: _600  and  _602
REMARK  229  A    between atoms: _602  and  _603
REMARK  230  A    between atoms: _602  and  _605
REMARK  231  A    between atoms: _605  and  _606
REMARK  232  A    between atoms: _606  and  _607
REMARK  233  A    between atoms: _610  and  _612
REMARK  234  A    between atoms: _612  and  _613
REMARK  235  A    between atoms: _612  and  _615
REMARK  236  A    between atoms: _615  and  _616
REMARK  237  A    between atoms: _616  and  _617
REMARK  238  A    between atoms: _617  and  _618
REMARK                            x       y       z     vdW  Elec       q    Type
REMARK                         _______ _______ _______ _____ _____    ______ ____
ROOT
ATOM      1  CG  TYR A   1      40.025  47.923  55.548  0.00  0.00    -0.020 A 
ATOM      2  CD2 TYR A   1      39.267  49.016  55.121  0.00  0.00    -0.001 A 
ATOM      3  CE2 TYR A   1      38.186  48.847  54.246  0.00  0.00    +0.036 A 
ATOM      4  CZ  TYR A   1      37.862  47.569  53.795  0.00  0.00    +0.134 A 
ATOM      5  CE1 TYR A   1      38.603  46.468  54.204  0.00  0.00    +0.036 A 
ATOM      6  CD1 TYR A   1      39.675  46.648  55.067  0.00  0.00    -0.001 A 
ENDROOT
BRANCH   4   7
ATOM      7  OH  TYR A   1      36.801  47.403  52.934  0.00  0.00    -0.506 OA
ATOM      8  HH  TYR A   1      36.705  46.443  52.711  0.00  0.00    +0.292 HD
ENDBRANCH   4   7
BRANCH   1   9
ATOM      9  CB  TYR A   1      41.193  48.108  56.499  0.00  0.00    +0.051 C 
BRANCH   9  10
ATOM     10  CA  TYR A   1      40.784  48.057  57.963  0.00  0.00    +0.137 C 
BRANCH  10  11
ATOM     11  N   TYR A   1      41.941  48.219  58.853  0.00  0.00    -0.239 NA
ATOM     12  H   TYR A   1      42.885  48.356  58.438  0.00  0.00    +0.142 HD
ENDBRANCH  10  11
BRANCH  10  13
ATOM     13  C   TYR A   1      40.052  46.739  58.225  0.00  0.00    +0.224 C 
ATOM     14  O   TYR A   1      38.825  46.696  58.282  0.00  0.00    -0.287 OA
ENDBRANCH  10  13
ENDBRANCH   9  10
ENDBRANCH   1   9
TORSDOF 5
REMARK  Name = ../refined-set-2016/3gx0/3gx0_pocket.pdb
REMARK  238 active torsions:
REMARK  status: ('A' for Active; 'I' for Inactive)
REMARK    1  A    between atoms: _1  and  _3
REMARK    2  A    between atoms: _3  and  _4
REMARK    3  A    between atoms: _3  and  _6
REMARK    4  A    between atoms: _6  and  _7
REMARK    5  A    between atoms: _12  and  _13
REMARK    6  A    between atoms: _15  and  _17
REMARK    7  A    between atoms: _17  and  _18
REMARK    8  A    between atoms: _17  and  _20
REMARK    9  A    between atoms: _20  and  _21
REMARK   10  A    between atoms: _27  and  _29
REMARK   11  A    between atoms: _29  and  _30
REMARK   12  A    between atoms: _34  and  _35
REMARK   13  A    between atoms: _40  and  _42
REMARK   14  A    between atoms: _42  and  _43
REMARK   15  A    between atoms: _42  and  _45
REMARK   16  A    between atoms: _45  and  _46
REMARK   17  A    between atoms: _50  and  _51
REMARK   18  A    between atoms: _56  and  _58
REMARK   19  A    between atoms: _58  and  _59
REMARK   20  A    between atoms: _58  and  _61
REMARK   21  A    between atoms: _61  and  _62
REMARK   22  A    between atoms: _67  and  _69
REMARK   23  A    between atoms: _69  and  _70
REMARK   24  A    between atoms: _72  and  _74
REMARK   25  A    between atoms: _74  and  _75
REMARK   26  A    between atoms: _74  and  _77
REMARK   27  A    between atoms: _77  and  _78
REMARK   28  A    between atoms: _83  and  _85
REMARK   29  A    between atoms: _85  and  _86
REMARK   30  A    between atoms: _85  and  _88
REMARK   31  A    between atoms: _88  and  _89
REMARK   32  A    between atoms: _89  and  _90
REMARK   33  A    between atoms: _90  and  _91
REMARK   34  A    between atoms: _91  and  _92
REMARK   35  A    between atoms: _96  and  _98
REMARK   36  A    between atoms: _98  and  _99
REMARK   37  A    between atoms: _98  and  _101
REMARK   38  A    between atoms: _101  and  _102
REMARK   39  A    between atoms: _105  and  _107
REMARK   40  A    between atoms: _107  and  _108
REMARK   41  A    between atoms: _107  and  _110
REMARK   42  A    between atoms: _113  and  _115
REMARK   43  A    between atoms: _115  and  _116
REMARK   44  A    between atoms: _115  and  _118
REMARK   45  A    between atoms: _118  and  _119
REMARK   46  A    between atoms: _122  and  _124
REMARK   47  A    between atoms: _124  and  _125
REMARK   48  A    between atoms: _124  and  _127
REMARK   49  A    between atoms: _127  and  _128
REMARK   50  A    between atoms: _131  and  _133
REMARK   51  A    between atoms: _133  and  _134
REMARK   52  A    between atoms: _136  and  _138
REMARK   53  A    between atoms: _138  and  _139
REMARK   54  A    between atoms: _141  and  _143
REMARK   55  A    between atoms: _143  and  _144
REMARK   56  A    between atoms: _143  and  _146
REMARK   57  A    between atoms: _146  and  _147
REMARK   58  A    between atoms: _147  and  _148
REMARK   59  A    between atoms: _153  and  _155
REMARK   60  A    between atoms: _155  and  _156
REMARK   61  A    between atoms: _155  and  _158
REMARK   62  A    between atoms: _158  and  _159
REMARK   63  A    between atoms: _165  and  _167
REMARK   64  A    between atoms: _167  and  _168
REMARK   65  A    between atoms: _167  and  _170
REMARK   66  A    between atoms: _170  and  _171
REMARK   67  A    between atoms: _177  and  _179
REMARK   68  A    between atoms: _179  and  _180
REMARK   69  A    between atoms: _179  and  _182
REMARK   70  A    between atoms: _182  and  _183
REMARK   71  A    between atoms: _185  and  _187
REMARK   72  A    between atoms: _187  and  _188
REMARK   73  A    between atoms: _187  and  _190
REMARK   74  A    between atoms: _190  and  _191
REMARK   75  A    between atoms: _196  and  _198
REMARK   76  A    between atoms: _198  and  _199
REMARK   77  A    between atoms: _198  and  _201
REMARK   78  A    between atoms: _201  and  _202
REMARK   79  A    between atoms: _207  and  _209
REMARK   80  A    between atoms: _209  and  _210
REMARK   81  A    between atoms: _209  and  _212
REMARK   82  A    between atoms: _212  and  _213
REMARK   83  A    between atoms: _213  and  _214
REMARK   84  A    between atoms: _214  and  _215
REMARK   85  A    between atoms: _215  and  _216
REMARK   86  A    between atoms: _220  and  _222
REMARK   87  A    between atoms: _222  and  _223
REMARK   88  A    between atoms: _222  and  _225
REMARK   89  A    between atoms: _225  and  _226
REMARK   90  A    between atoms: _230  and  _231
REMARK   91  A    between atoms: _236  and  _238
REMARK   92  A    between atoms: _238  and  _239
REMARK   93  A    between atoms: _242  and  _244
REMARK   94  A    between atoms: _244  and  _245
REMARK   95  A    between atoms: _244  and  _247
REMARK   96  A    between atoms: _247  and  _248
REMARK   97  A    between atoms: _254  and  _256
REMARK   98  A    between atoms: _256  and  _257
REMARK   99  A    between atoms: _256  and  _259
REMARK  100  A    between atoms: _259  and  _260
REMARK  101  A    between atoms: _260  and  _261
REMARK  102  A    between atoms: _264  and  _266
REMARK  103  A    between atoms: _266  and  _267
REMARK  104  A    between atoms: _266  and  _269
REMARK  105  A    between atoms: _269  and  _270
REMARK  106  A    between atoms: _272  and  _274
REMARK  107  A    between atoms: _274  and  _275
REMARK  108  A    between atoms: _277  and  _279
REMARK  109  A    between atoms: _279  and  _280
REMARK  110  A    between atoms: _283  and  _285
REMARK  111  A    between atoms: _285  and  _286
REMARK  112  A    between atoms: _285  and  _288
REMARK  113  A    between atoms: _288  and  _289
REMARK  114  A    between atoms: _292  and  _294
REMARK  115  A    between atoms: _294  and  _295
REMARK  116  A    between atoms: _294  and  _297
REMARK  117  A    between atoms: _297  and  _298
REMARK  118  A    between atoms: _301  and  _303
REMARK  119  A    between atoms: _303  and  _304
REMARK  120  A    between atoms: _303  and  _306
REMARK  121  A    between atoms: _306  and  _307
REMARK  122  A    between atoms: _307  and  _308
REMARK  123  A    between atoms: _313  and  _315
REMARK  124  A    between atoms: _315  and  _316
REMARK  125  A    between atoms: _315  and  _318
REMARK  126  A    between atoms: _321  and  _323
REMARK  127  A    between atoms: _323  and  _324
REMARK  128  A    between atoms: _326  and  _328
REMARK  129  A    between atoms: _328  and  _329
REMARK  130  A    between atoms: _331  and  _333
REMARK  131  A    between atoms: _333  and  _334
REMARK  132  A    between atoms: _333  and  _336
REMARK  133  A    between atoms: _336  and  _337
REMARK  134  A    between atoms: _340  and  _342
REMARK  135  A    between atoms: _342  and  _343
REMARK  136  A    between atoms: _346  and  _347
REMARK  137  A    between atoms: _352  and  _354
REMARK  138  A    between atoms: _354  and  _355
REMARK  139  A    between atoms: _354  and  _357
REMARK  140  A    between atoms: _357  and  _358
REMARK  141  A    between atoms: _358  and  _359
REMARK  142  A    between atoms: _361  and  _363
REMARK  143  A    between atoms: _363  and  _364
REMARK  144  A    between atoms: _363  and  _366
REMARK  145  A    between atoms: _366  and  _367
REMARK  146  A    between atoms: _370  and  _372
REMARK  147  A    between atoms: _372  and  _373
REMARK  148  A    between atoms: _375  and  _377
REMARK  149  A    between atoms: _377  and  _378
REMARK  150  A    between atoms: _377  and  _380
REMARK  151  A    between atoms: _380  and  _381
REMARK  152  A    between atoms: _381  and  _382
REMARK  153  A    between atoms: _387  and  _389
REMARK  154  A    between atoms: _389  and  _390
REMARK  155  A    between atoms: _389  and  _392
REMARK  156  A    between atoms: _392  and  _393
REMARK  157  A    between atoms: _398  and  _400
REMARK  158  A    between atoms: _400  and  _401
REMARK  159  A    between atoms: _400  and  _403
REMARK  160  A    between atoms: _403  and  _404
REMARK  161  A    between atoms: _409  and  _411
REMARK  162  A    between atoms: _411  and  _412
REMARK  163  A    between atoms: _411  and  _414
REMARK  164  A    between atoms: _414  and  _415
REMARK  165  A    between atoms: _420  and  _422
REMARK  166  A    between atoms: _422  and  _423
REMARK  167  A    between atoms: _422  and  _425
REMARK  168  A    between atoms: _425  and  _426
REMARK  169  A    between atoms: _432  and  _434
REMARK  170  A    between atoms: _434  and  _435
REMARK  171  A    between atoms: _438  and  _440
REMARK  172  A    between atoms: _440  and  _441
REMARK  173  A    between atoms: _444  and  _446
REMARK  174  A    between atoms: _446  and  _447
REMARK  175  A    between atoms: _446  and  _449
REMARK  176  A    between atoms: _449  and  _450
REMARK  177  A    between atoms: _460  and  _462
REMARK  178  A    between atoms: _462  and  _463
REMARK  179  A    between atoms: _462  and  _465
REMARK  180  A    between atoms: _465  and  _466
REMARK  181  A    between atoms: _466  and  _467
REMARK  182  A    between atoms: _472  and  _474
REMARK  183  A    between atoms: _474  and  _475
REMARK  184  A    between atoms: _474  and  _477
REMARK  185  A    between atoms: _477  and  _478
REMARK  186  A    between atoms: _484  and  _486
REMARK  187  A    between atoms: _486  and  _487
REMARK  188  A    between atoms: _486  and  _489
REMARK  189  A    between atoms: _489  and  _490
REMARK  190  A    between atoms: _500  and  _502
REMARK  191  A    between atoms: _502  and  _503
REMARK  192  A    between atoms: _502  and  _505
REMARK  193  A    between atoms: _505  and  _506
REMARK  194  A    between atoms: _506  and  _507
REMARK  195  A    between atoms: _512  and  _514
REMARK  196  A    between atoms: _514  and  _515
REMARK  197  A    between atoms: _514  and  _517
REMARK  198  A    between atoms: _520  and  _522
REMARK  199  A    between atoms: _522  and  _523
REMARK  200  A    between atoms: _525  and  _527
REMARK  201  A    between atoms: _527  and  _528
REMARK  202  A    between atoms: _530  and  _532
REMARK  203  A    between atoms: _532  and  _533
REMARK  204  A    between atoms: _532  and  _535
REMARK  205  A    between atoms: _535  and  _536
REMARK  206  A    between atoms: _540  and  _541
REMARK  207  A    between atoms: _546  and  _548
REMARK  208  A    between atoms: _548  and  _549
REMARK  209  A    between atoms: _548  and  _551
REMARK  210  A    between atoms: _551  and  _552
REMARK  211  A    between atoms: _552  and  _553
REMARK  212  A    between atoms: _555  and  _557
REMARK  213  A    between atoms: _557  and  _558
REMARK  214  A    between atoms: _557  and  _560
REMARK  215  A    between atoms: _560  and  _561
REMARK  216  A    between atoms: _566  and  _567
REMARK  217  A    between atoms: _569  and  _571
REMARK  218  A    between atoms: _571  and  _572
REMARK  219  A    between atoms: _571  and  _574
REMARK  220  A    between atoms: _574  and  _575
REMARK  221  A    between atoms: _575  and  _576
REMARK  222  A    between atoms: _576  and  _577
REMARK  223  A    between atoms: _586  and  _588
REMARK  224  A    between atoms: _588  and  _589
REMARK  225  A    between atoms: _588  and  _591
REMARK  226  A    between atoms: _591  and  _592
REMARK  227  A    between atoms: _597  and  _598
REMARK  228  A    between atoms: _600  and  _602
REMARK  229  A    between atoms: _602  and  _603
REMARK  230  A    between atoms: _602  and  _605
REMARK  231  A    between atoms: _605  and  _606
REMARK  232  A    between atoms: _606  and  _607
REMARK  233  A    between atoms: _610  and  _612
REMARK  234  A    between atoms: _612  and  _613
REMARK  235  A    between atoms: _612  and  _615
REMARK  236  A    between atoms: _615  and  _616
REMARK  237  A    between atoms: _616  and  _617
REMARK  238  A    between atoms: _617  and  _618
REMARK                            x       y       z     vdW  Elec       q    Type
REMARK                         _______ _______ _______ _____ _____    ______ ____
ROOT
ATOM      1  C   ARG A   1      34.850  44.138  59.682  0.00  0.00    +0.238 C 
ATOM      2  N   TYR A   2      35.640  43.278  60.331  0.00  0.00    -0.298 N 
ATOM      3  H   TYR A   2      36.668  43.433  60.322  0.00  0.00    +0.150 HD
ATOM      4  O   ARG A   1      33.625  44.063  59.703  0.00  0.00    -0.274 OA
ENDROOT
BRANCH   1   5
ATOM      5  CA  ARG A   1      35.537  45.328  58.955  0.00  0.00    +0.145 C 
BRANCH   5   6
ATOM      6  N   ARG A   1      36.513  46.031  59.805  0.00  0.00    -0.238 NA
ATOM      7  H   ARG A   1      37.493  46.143  59.475  0.00  0.00    +0.142 HD
ENDBRANCH   5   6
BRANCH   5   8
ATOM      8  CB  ARG A   1      36.141  44.934  57.603  0.00  0.00    +0.030 C 
BRANCH   8   9
ATOM      9  CG  ARG A   1      35.333  43.903  56.803  0.00  0.00    +0.045 C 
BRANCH   9  10
ATOM     10  CD  ARG A   1      35.800  43.878  55.356  0.00  0.00    +0.174 C 
BRANCH  10  11
ATOM     11  NE  ARG A   1      35.306  42.704  54.633  0.00  0.00    -0.265 N 
ATOM     12  HE  ARG A   1      35.866  41.830  54.693  0.00  0.00    +0.259 HD
ATOM     13  CZ  ARG A   1      34.193  42.675  53.906  0.00  0.00    +0.342 C 
ATOM     14  NH2 ARG A   1      33.413  43.757  53.787  0.00  0.00    -0.292 N 
ATOM     15 HH21 ARG A   1      33.674  44.641  54.268  0.00  0.00    +0.255 HD
ATOM     16 HH22 ARG A   1      32.547  43.713  53.213  0.00  0.00    +0.255 HD
ATOM     17  NH1 ARG A   1      33.854  41.549  53.293  0.00  0.00    -0.292 N 
ATOM     18 HH11 ARG A   1      34.455  40.706  53.385  0.00  0.00    +0.255 HD
ATOM     19 HH12 ARG A   1      32.987  41.509  52.720  0.00  0.00    +0.255 HD
ENDBRANCH  10  11
ENDBRANCH   9  10
ENDBRANCH   8   9
ENDBRANCH   5   8
ENDBRANCH   1   5
BRANCH   2  20
ATOM     20  CA  TYR A   2      35.100  42.120  61.057  0.00  0.00    +0.141 C 
BRANCH  20  21
ATOM     21  C   TYR A   2      34.506  42.400  62.428  0.00  0.00    +0.227 C 
ATOM     22  O   TYR A   2      33.709  41.592  62.933  0.00  0.00    -0.286 OA
ENDBRANCH  20  21
BRANCH  20  23
ATOM     23  CB  TYR A   2      36.076  40.914  61.033  0.00  0.00    +0.054 C 
BRANCH  23  24
ATOM     24  CG  TYR A   2      36.352  40.529  59.588  0.00  0.00    -0.020 A 
ATOM     25  CD2 TYR A   2      37.620  40.702  59.031  0.00  0.00    -0.001 A 
ATOM     26  CE2 TYR A   2      37.856  40.415  57.699  0.00  0.00    +0.036 A 
ATOM     27  CZ  TYR A   2      36.821  39.968  56.901  0.00  0.00    +0.134 A 
ATOM     28  CE1 TYR A   2      35.529  39.806  57.419  0.00  0.00    +0.036 A 
ATOM     29  CD1 TYR A   2      35.308  40.080  58.751  0.00  0.00    -0.001 A 
BRANCH  27  30
ATOM     30  OH  TYR A   2      37.079  39.672  55.588  0.00  0.00    -0.506 OA
ATOM     31  HH  TYR A   2      36.245  39.367  55.150  0.00  0.00    +0.292 HD
ENDBRANCH  27  30
ENDBRANCH  23  24
ENDBRANCH  20  23
ENDBRANCH   2  20
TORSDOF 11
REMARK  Name = ../refined-set-2016/3gx0/3gx0_pocket.pdb
REMARK  238 active torsions:
REMARK  status: ('A' for Active; 'I' for Inactive)
REMARK    1  A    between atoms: _1  and  _3
REMARK    2  A    between atoms: _3  and  _4
REMARK    3  A    between atoms: _3  and  _6
REMARK    4  A    between atoms: _6  and  _7
REMARK    5  A    between atoms: _12  and  _13
REMARK    6  A    between atoms: _15  and  _17
REMARK    7  A    between atoms: _17  and  _18
REMARK    8  A    between atoms: _17  and  _20
REMARK    9  A    between atoms: _20  and  _21
REMARK   10  A    between atoms: _27  and  _29
REMARK   11  A    between atoms: _29  and  _30
REMARK   12  A    between atoms: _34  and  _35
REMARK   13  A    between atoms: _40  and  _42
REMARK   14  A    between atoms: _42  and  _43
REMARK   15  A    between atoms: _42  and  _45
REMARK   16  A    between atoms: _45  and  _46
REMARK   17  A    between atoms: _50  and  _51
REMARK   18  A    between atoms: _56  and  _58
REMARK   19  A    between atoms: _58  and  _59
REMARK   20  A    between atoms: _58  and  _61
REMARK   21  A    between atoms: _61  and  _62
REMARK   22  A    between atoms: _67  and  _69
REMARK   23  A    between atoms: _69  and  _70
REMARK   24  A    between atoms: _72  and  _74
REMARK   25  A    between atoms: _74  and  _75
REMARK   26  A    between atoms: _74  and  _77
REMARK   27  A    between atoms: _77  and  _78
REMARK   28  A    between atoms: _83  and  _85
REMARK   29  A    between atoms: _85  and  _86
REMARK   30  A    between atoms: _85  and  _88
REMARK   31  A    between atoms: _88  and  _89
REMARK   32  A    between atoms: _89  and  _90
REMARK   33  A    between atoms: _90  and  _91
REMARK   34  A    between atoms: _91  and  _92
REMARK   35  A    between atoms: _96  and  _98
REMARK   36  A    between atoms: _98  and  _99
REMARK   37  A    between atoms: _98  and  _101
REMARK   38  A    between atoms: _101  and  _102
REMARK   39  A    between atoms: _105  and  _107
REMARK   40  A    between atoms: _107  and  _108
REMARK   41  A    between atoms: _107  and  _110
REMARK   42  A    between atoms: _113  and  _115
REMARK   43  A    between atoms: _115  and  _116
REMARK   44  A    between atoms: _115  and  _118
REMARK   45  A    between atoms: _118  and  _119
REMARK   46  A    between atoms: _122  and  _124
REMARK   47  A    between atoms: _124  and  _125
REMARK   48  A    between atoms: _124  and  _127
REMARK   49  A    between atoms: _127  and  _128
REMARK   50  A    between atoms: _131  and  _133
REMARK   51  A    between atoms: _133  and  _134
REMARK   52  A    between atoms: _136  and  _138
REMARK   53  A    between atoms: _138  and  _139
REMARK   54  A    between atoms: _141  and  _143
REMARK   55  A    between atoms: _143  and  _144
REMARK   56  A    between atoms: _143  and  _146
REMARK   57  A    between atoms: _146  and  _147
REMARK   58  A    between atoms: _147  and  _148
REMARK   59  A    between atoms: _153  and  _155
REMARK   60  A    between atoms: _155  and  _156
REMARK   61  A    between atoms: _155  and  _158
REMARK   62  A    between atoms: _158  and  _159
REMARK   63  A    between atoms: _165  and  _167
REMARK   64  A    between atoms: _167  and  _168
REMARK   65  A    between atoms: _167  and  _170
REMARK   66  A    between atoms: _170  and  _171
REMARK   67  A    between atoms: _177  and  _179
REMARK   68  A    between atoms: _179  and  _180
REMARK   69  A    between atoms: _179  and  _182
REMARK   70  A    between atoms: _182  and  _183
REMARK   71  A    between atoms: _185  and  _187
REMARK   72  A    between atoms: _187  and  _188
REMARK   73  A    between atoms: _187  and  _190
REMARK   74  A    between atoms: _190  and  _191
REMARK   75  A    between atoms: _196  and  _198
REMARK   76  A    between atoms: _198  and  _199
REMARK   77  A    between atoms: _198  and  _201
REMARK   78  A    between atoms: _201  and  _202
REMARK   79  A    between atoms: _207  and  _209
REMARK   80  A    between atoms: _209  and  _210
REMARK   81  A    between atoms: _209  and  _212
REMARK   82  A    between atoms: _212  and  _213
REMARK   83  A    between atoms: _213  and  _214
REMARK   84  A    between atoms: _214  and  _215
REMARK   85  A    between atoms: _215  and  _216
REMARK   86  A    between atoms: _220  and  _222
REMARK   87  A    between atoms: _222  and  _223
REMARK   88  A    between atoms: _222  and  _225
REMARK   89  A    between atoms: _225  and  _226
REMARK   90  A    between atoms: _230  and  _231
REMARK   91  A    between atoms: _236  and  _238
REMARK   92  A    between atoms: _238  and  _239
REMARK   93  A    between atoms: _242  and  _244
REMARK   94  A    between atoms: _244  and  _245
REMARK   95  A    between atoms: _244  and  _247
REMARK   96  A    between atoms: _247  and  _248
REMARK   97  A    between atoms: _254  and  _256
REMARK   98  A    between atoms: _256  and  _257
REMARK   99  A    between atoms: _256  and  _259
REMARK  100  A    between atoms: _259  and  _260
REMARK  101  A    between atoms: _260  and  _261
REMARK  102  A    between atoms: _264  and  _266
REMARK  103  A    between atoms: _266  and  _267
REMARK  104  A    between atoms: _266  and  _269
REMARK  105  A    between atoms: _269  and  _270
REMARK  106  A    between atoms: _272  and  _274
REMARK  107  A    between atoms: _274  and  _275
REMARK  108  A    between atoms: _277  and  _279
REMARK  109  A    between atoms: _279  and  _280
REMARK  110  A    between atoms: _283  and  _285
REMARK  111  A    between atoms: _285  and  _286
REMARK  112  A    between atoms: _285  and  _288
REMARK  113  A    between atoms: _288  and  _289
REMARK  114  A    between atoms: _292  and  _294
REMARK  115  A    between atoms: _294  and  _295
REMARK  116  A    between atoms: _294  and  _297
REMARK  117  A    between atoms: _297  and  _298
REMARK  118  A    between atoms: _301  and  _303
REMARK  119  A    between atoms: _303  and  _304
REMARK  120  A    between atoms: _303  and  _306
REMARK  121  A    between atoms: _306  and  _307
REMARK  122  A    between atoms: _307  and  _308
REMARK  123  A    between atoms: _313  and  _315
REMARK  124  A    between atoms: _315  and  _316
REMARK  125  A    between atoms: _315  and  _318
REMARK  126  A    between atoms: _321  and  _323
REMARK  127  A    between atoms: _323  and  _324
REMARK  128  A    between atoms: _326  and  _328
REMARK  129  A    between atoms: _328  and  _329
REMARK  130  A    between atoms: _331  and  _333
REMARK  131  A    between atoms: _333  and  _334
REMARK  132  A    between atoms: _333  and  _336
REMARK  133  A    between atoms: _336  and  _337
REMARK  134  A    between atoms: _340  and  _342
REMARK  135  A    between atoms: _342  and  _343
REMARK  136  A    between atoms: _346  and  _347
REMARK  137  A    between atoms: _352  and  _354
REMARK  138  A    between atoms: _354  and  _355
REMARK  139  A    between atoms: _354  and  _357
REMARK  140  A    between atoms: _357  and  _358
REMARK  141  A    between atoms: _358  and  _359
REMARK  142  A    between atoms: _361  and  _363
REMARK  143  A    between atoms: _363  and  _364
REMARK  144  A    between atoms: _363  and  _366
REMARK  145  A    between atoms: _366  and  _367
REMARK  146  A    between atoms: _370  and  _372
REMARK  147  A    between atoms: _372  and  _373
REMARK  148  A    between atoms: _375  and  _377
REMARK  149  A    between atoms: _377  and  _378
REMARK  150  A    between atoms: _377  and  _380
REMARK  151  A    between atoms: _380  and  _381
REMARK  152  A    between atoms: _381  and  _382
REMARK  153  A    between atoms: _387  and  _389
REMARK  154  A    between atoms: _389  and  _390
REMARK  155  A    between atoms: _389  and  _392
REMARK  156  A    between atoms: _392  and  _393
REMARK  157  A    between atoms: _398  and  _400
REMARK  158  A    between atoms: _400  and  _401
REMARK  159  A    between atoms: _400  and  _403
REMARK  160  A    between atoms: _403  and  _404
REMARK  161  A    between atoms: _409  and  _411
REMARK  162  A    between atoms: _411  and  _412
REMARK  163  A    between atoms: _411  and  _414
REMARK  164  A    between atoms: _414  and  _415
REMARK  165  A    between atoms: _420  and  _422
REMARK  166  A    between atoms: _422  and  _423
REMARK  167  A    between atoms: _422  and  _425
REMARK  168  A    between atoms: _425  and  _426
REMARK  169  A    between atoms: _432  and  _434
REMARK  170  A    between atoms: _434  and  _435
REMARK  171  A    between atoms: _438  and  _440
REMARK  172  A    between atoms: _440  and  _441
REMARK  173  A    between atoms: _444  and  _446
REMARK  174  A    between atoms: _446  and  _447
REMARK  175  A    between atoms: _446  and  _449
REMARK  176  A    between atoms: _449  and  _450
REMARK  177  A    between atoms: _460  and  _462
REMARK  178  A    between atoms: _462  and  _463
REMARK  179  A    between atoms: _462  and  _465
REMARK  180  A    between atoms: _465  and  _466
REMARK  181  A    between atoms: _466  and  _467
REMARK  182  A    between atoms: _472  and  _474
REMARK  183  A    between atoms: _474  and  _475
REMARK  184  A    between atoms: _474  and  _477
REMARK  185  A    between atoms: _477  and  _478
REMARK  186  A    between atoms: _484  and  _486
REMARK  187  A    between atoms: _486  and  _487
REMARK  188  A    between atoms: _486  and  _489
REMARK  189  A    between atoms: _489  and  _490
REMARK  190  A    between atoms: _500  and  _502
REMARK  191  A    between atoms: _502  and  _503
REMARK  192  A    between atoms: _502  and  _505
REMARK  193  A    between atoms: _505  and  _506
REMARK  194  A    between atoms: _506  and  _507
REMARK  195  A    between atoms: _512  and  _514
REMARK  196  A    between atoms: _514  and  _515
REMARK  197  A    between atoms: _514  and  _517
REMARK  198  A    between atoms: _520  and  _522
REMARK  199  A    between atoms: _522  and  _523
REMARK  200  A    between atoms: _525  and  _527
REMARK  201  A    between atoms: _527  and  _528
REMARK  202  A    between atoms: _530  and  _532
REMARK  203  A    between atoms: _532  and  _533
REMARK  204  A    between atoms: _532  and  _535
REMARK  205  A    between atoms: _535  and  _536
REMARK  206  A    between atoms: _540  and  _541
REMARK  207  A    between atoms: _546  and  _548
REMARK  208  A    between atoms: _548  and  _549
REMARK  209  A    between atoms: _548  and  _551
REMARK  210  A    between atoms: _551  and  _552
REMARK  211  A    between atoms: _552  and  _553
REMARK  212  A    between atoms: _555  and  _557
REMARK  213  A    between atoms: _557  and  _558
REMARK  214  A    between atoms: _557  and  _560
REMARK  215  A    between atoms: _560  and  _561
REMARK  216  A    between atoms: _566  and  _567
REMARK  217  A    between atoms: _569  and  _571
REMARK  218  A    between atoms: _571  and  _572
REMARK  219  A    between atoms: _571  and  _574
REMARK  220  A    between atoms: _574  and  _575
REMARK  221  A    between atoms: _575  and  _576
REMARK  222  A    between atoms: _576  and  _577
REMARK  223  A    between atoms: _586  and  _588
REMARK  224  A    between atoms: _588  and  _589
REMARK  225  A    between atoms: _588  and  _591
REMARK  226  A    between atoms: _591  and  _592
REMARK  227  A    between atoms: _597  and  _598
REMARK  228  A    between atoms: _600  and  _602
REMARK  229  A    between atoms: _602  and  _603
REMARK  230  A    between atoms: _602  and  _605
REMARK  231  A    between atoms: _605  and  _606
REMARK  232  A    between atoms: _606  and  _607
REMARK  233  A    between atoms: _610  and  _612
REMARK  234  A    between atoms: _612  and  _613
REMARK  235  A    between atoms: _612  and  _615
REMARK  236  A    between atoms: _615  and  _616
REMARK  237  A    between atoms: _616  and  _617
REMARK  238  A    between atoms: _617  and  _618
REMARK                            x       y       z     vdW  Elec       q    Type
REMARK                         _______ _______ _______ _____ _____    ______ ____
ROOT
ATOM      1  CA  GLU A   1      30.146  42.463  61.160  0.00  0.00    +0.134 C 
ENDROOT
BRANCH   1   2
ATOM      2  N   GLU A   1      30.885  43.656  61.595  0.00  0.00    -0.239 NA
ATOM      3  H   GLU A   1      31.876  43.750  61.293  0.00  0.00    +0.142 HD
ENDBRANCH   1   2
BRANCH   1   4
ATOM      4  C   GLU A   1      29.793  41.526  62.319  0.00  0.00    +0.224 C 
ATOM      5  O   GLU A   1      28.729  40.952  62.343  0.00  0.00    -0.287 OA
ENDBRANCH   1   4
BRANCH   1   6
ATOM      6  CB  GLU A   1      30.916  41.739  60.030  0.00  0.00    +0.037 C 
BRANCH   6   7
ATOM      7  CG  GLU A   1      30.285  40.437  59.517  0.00  0.00    +0.116 C 
BRANCH   7   8
ATOM      8  CD  GLU A   1      28.877  40.605  58.937  0.00  0.00    +0.365 C 
ATOM      9  OE2 GLU A   1      28.203  39.576  58.740  0.00  0.00    -0.246 OA
ATOM     10  OE1 GLU A   1      28.432  41.741  58.678  0.00  0.00    -0.246 OA
ENDBRANCH   7   8
ENDBRANCH   6   7
ENDBRANCH   1   6
TORSDOF 5
REMARK  Name = ../refined-set-2016/3gx0/3gx0_pocket.pdb
REMARK  238 active torsions:
REMARK  status: ('A' for Active; 'I' for Inactive)
REMARK    1  A    between atoms: _1  and  _3
REMARK    2  A    between atoms: _3  and  _4
REMARK    3  A    between atoms: _3  and  _6
REMARK    4  A    between atoms: _6  and  _7
REMARK    5  A    between atoms: _12  and  _13
REMARK    6  A    between atoms: _15  and  _17
REMARK    7  A    between atoms: _17  and  _18
REMARK    8  A    between atoms: _17  and  _20
REMARK    9  A    between atoms: _20  and  _21
REMARK   10  A    between atoms: _27  and  _29
REMARK   11  A    between atoms: _29  and  _30
REMARK   12  A    between atoms: _34  and  _35
REMARK   13  A    between atoms: _40  and  _42
REMARK   14  A    between atoms: _42  and  _43
REMARK   15  A    between atoms: _42  and  _45
REMARK   16  A    between atoms: _45  and  _46
REMARK   17  A    between atoms: _50  and  _51
REMARK   18  A    between atoms: _56  and  _58
REMARK   19  A    between atoms: _58  and  _59
REMARK   20  A    between atoms: _58  and  _61
REMARK   21  A    between atoms: _61  and  _62
REMARK   22  A    between atoms: _67  and  _69
REMARK   23  A    between atoms: _69  and  _70
REMARK   24  A    between atoms: _72  and  _74
REMARK   25  A    between atoms: _74  and  _75
REMARK   26  A    between atoms: _74  and  _77
REMARK   27  A    between atoms: _77  and  _78
REMARK   28  A    between atoms: _83  and  _85
REMARK   29  A    between atoms: _85  and  _86
REMARK   30  A    between atoms: _85  and  _88
REMARK   31  A    between atoms: _88  and  _89
REMARK   32  A    between atoms: _89  and  _90
REMARK   33  A    between atoms: _90  and  _91
REMARK   34  A    between atoms: _91  and  _92
REMARK   35  A    between atoms: _96  and  _98
REMARK   36  A    between atoms: _98  and  _99
REMARK   37  A    between atoms: _98  and  _101
REMARK   38  A    between atoms: _101  and  _102
REMARK   39  A    between atoms: _105  and  _107
REMARK   40  A    between atoms: _107  and  _108
REMARK   41  A    between atoms: _107  and  _110
REMARK   42  A    between atoms: _113  and  _115
REMARK   43  A    between atoms: _115  and  _116
REMARK   44  A    between atoms: _115  and  _118
REMARK   45  A    between atoms: _118  and  _119
REMARK   46  A    between atoms: _122  and  _124
REMARK   47  A    between atoms: _124  and  _125
REMARK   48  A    between atoms: _124  and  _127
REMARK   49  A    between atoms: _127  and  _128
REMARK   50  A    between atoms: _131  and  _133
REMARK   51  A    between atoms: _133  and  _134
REMARK   52  A    between atoms: _136  and  _138
REMARK   53  A    between atoms: _138  and  _139
REMARK   54  A    between atoms: _141  and  _143
REMARK   55  A    between atoms: _143  and  _144
REMARK   56  A    between atoms: _143  and  _146
REMARK   57  A    between atoms: _146  and  _147
REMARK   58  A    between atoms: _147  and  _148
REMARK   59  A    between atoms: _153  and  _155
REMARK   60  A    between atoms: _155  and  _156
REMARK   61  A    between atoms: _155  and  _158
REMARK   62  A    between atoms: _158  and  _159
REMARK   63  A    between atoms: _165  and  _167
REMARK   64  A    between atoms: _167  and  _168
REMARK   65  A    between atoms: _167  and  _170
REMARK   66  A    between atoms: _170  and  _171
REMARK   67  A    between atoms: _177  and  _179
REMARK   68  A    between atoms: _179  and  _180
REMARK   69  A    between atoms: _179  and  _182
REMARK   70  A    between atoms: _182  and  _183
REMARK   71  A    between atoms: _185  and  _187
REMARK   72  A    between atoms: _187  and  _188
REMARK   73  A    between atoms: _187  and  _190
REMARK   74  A    between atoms: _190  and  _191
REMARK   75  A    between atoms: _196  and  _198
REMARK   76  A    between atoms: _198  and  _199
REMARK   77  A    between atoms: _198  and  _201
REMARK   78  A    between atoms: _201  and  _202
REMARK   79  A    between atoms: _207  and  _209
REMARK   80  A    between atoms: _209  and  _210
REMARK   81  A    between atoms: _209  and  _212
REMARK   82  A    between atoms: _212  and  _213
REMARK   83  A    between atoms: _213  and  _214
REMARK   84  A    between atoms: _214  and  _215
REMARK   85  A    between atoms: _215  and  _216
REMARK   86  A    between atoms: _220  and  _222
REMARK   87  A    between atoms: _222  and  _223
REMARK   88  A    between atoms: _222  and  _225
REMARK   89  A    between atoms: _225  and  _226
REMARK   90  A    between atoms: _230  and  _231
REMARK   91  A    between atoms: _236  and  _238
REMARK   92  A    between atoms: _238  and  _239
REMARK   93  A    between atoms: _242  and  _244
REMARK   94  A    between atoms: _244  and  _245
REMARK   95  A    between atoms: _244  and  _247
REMARK   96  A    between atoms: _247  and  _248
REMARK   97  A    between atoms: _254  and  _256
REMARK   98  A    between atoms: _256  and  _257
REMARK   99  A    between atoms: _256  and  _259
REMARK  100  A    between atoms: _259  and  _260
REMARK  101  A    between atoms: _260  and  _261
REMARK  102  A    between atoms: _264  and  _266
REMARK  103  A    between atoms: _266  and  _267
REMARK  104  A    between atoms: _266  and  _269
REMARK  105  A    between atoms: _269  and  _270
REMARK  106  A    between atoms: _272  and  _274
REMARK  107  A    between atoms: _274  and  _275
REMARK  108  A    between atoms: _277  and  _279
REMARK  109  A    between atoms: _279  and  _280
REMARK  110  A    between atoms: _283  and  _285
REMARK  111  A    between atoms: _285  and  _286
REMARK  112  A    between atoms: _285  and  _288
REMARK  113  A    between atoms: _288  and  _289
REMARK  114  A    between atoms: _292  and  _294
REMARK  115  A    between atoms: _294  and  _295
REMARK  116  A    between atoms: _294  and  _297
REMARK  117  A    between atoms: _297  and  _298
REMARK  118  A    between atoms: _301  and  _303
REMARK  119  A    between atoms: _303  and  _304
REMARK  120  A    between atoms: _303  and  _306
REMARK  121  A    between atoms: _306  and  _307
REMARK  122  A    between atoms: _307  and  _308
REMARK  123  A    between atoms: _313  and  _315
REMARK  124  A    between atoms: _315  and  _316
REMARK  125  A    between atoms: _315  and  _318
REMARK  126  A    between atoms: _321  and  _323
REMARK  127  A    between atoms: _323  and  _324
REMARK  128  A    between atoms: _326  and  _328
REMARK  129  A    between atoms: _328  and  _329
REMARK  130  A    between atoms: _331  and  _333
REMARK  131  A    between atoms: _333  and  _334
REMARK  132  A    between atoms: _333  and  _336
REMARK  133  A    between atoms: _336  and  _337
REMARK  134  A    between atoms: _340  and  _342
REMARK  135  A    between atoms: _342  and  _343
REMARK  136  A    between atoms: _346  and  _347
REMARK  137  A    between atoms: _352  and  _354
REMARK  138  A    between atoms: _354  and  _355
REMARK  139  A    between atoms: _354  and  _357
REMARK  140  A    between atoms: _357  and  _358
REMARK  141  A    between atoms: _358  and  _359
REMARK  142  A    between atoms: _361  and  _363
REMARK  143  A    between atoms: _363  and  _364
REMARK  144  A    between atoms: _363  and  _366
REMARK  145  A    between atoms: _366  and  _367
REMARK  146  A    between atoms: _370  and  _372
REMARK  147  A    between atoms: _372  and  _373
REMARK  148  A    between atoms: _375  and  _377
REMARK  149  A    between atoms: _377  and  _378
REMARK  150  A    between atoms: _377  and  _380
REMARK  151  A    between atoms: _380  and  _381
REMARK  152  A    between atoms: _381  and  _382
REMARK  153  A    between atoms: _387  and  _389
REMARK  154  A    between atoms: _389  and  _390
REMARK  155  A    between atoms: _389  and  _392
REMARK  156  A    between atoms: _392  and  _393
REMARK  157  A    between atoms: _398  and  _400
REMARK  158  A    between atoms: _400  and  _401
REMARK  159  A    between atoms: _400  and  _403
REMARK  160  A    between atoms: _403  and  _404
REMARK  161  A    between atoms: _409  and  _411
REMARK  162  A    between atoms: _411  and  _412
REMARK  163  A    between atoms: _411  and  _414
REMARK  164  A    between atoms: _414  and  _415
REMARK  165  A    between atoms: _420  and  _422
REMARK  166  A    between atoms: _422  and  _423
REMARK  167  A    between atoms: _422  and  _425
REMARK  168  A    between atoms: _425  and  _426
REMARK  169  A    between atoms: _432  and  _434
REMARK  170  A    between atoms: _434  and  _435
REMARK  171  A    between atoms: _438  and  _440
REMARK  172  A    between atoms: _440  and  _441
REMARK  173  A    between atoms: _444  and  _446
REMARK  174  A    between atoms: _446  and  _447
REMARK  175  A    between atoms: _446  and  _449
REMARK  176  A    between atoms: _449  and  _450
REMARK  177  A    between atoms: _460  and  _462
REMARK  178  A    between atoms: _462  and  _463
REMARK  179  A    between atoms: _462  and  _465
REMARK  180  A    between atoms: _465  and  _466
REMARK  181  A    between atoms: _466  and  _467
REMARK  182  A    between atoms: _472  and  _474
REMARK  183  A    between atoms: _474  and  _475
REMARK  184  A    between atoms: _474  and  _477
REMARK  185  A    between atoms: _477  and  _478
REMARK  186  A    between atoms: _484  and  _486
REMARK  187  A    between atoms: _486  and  _487
REMARK  188  A    between atoms: _486  and  _489
REMARK  189  A    between atoms: _489  and  _490
REMARK  190  A    between atoms: _500  and  _502
REMARK  191  A    between atoms: _502  and  _503
REMARK  192  A    between atoms: _502  and  _505
REMARK  193  A    between atoms: _505  and  _506
REMARK  194  A    between atoms: _506  and  _507
REMARK  195  A    between atoms: _512  and  _514
REMARK  196  A    between atoms: _514  and  _515
REMARK  197  A    between atoms: _514  and  _517
REMARK  198  A    between atoms: _520  and  _522
REMARK  199  A    between atoms: _522  and  _523
REMARK  200  A    between atoms: _525  and  _527
REMARK  201  A    between atoms: _527  and  _528
REMARK  202  A    between atoms: _530  and  _532
REMARK  203  A    between atoms: _532  and  _533
REMARK  204  A    between atoms: _532  and  _535
REMARK  205  A    between atoms: _535  and  _536
REMARK  206  A    between atoms: _540  and  _541
REMARK  207  A    between atoms: _546  and  _548
REMARK  208  A    between atoms: _548  and  _549
REMARK  209  A    between atoms: _548  and  _551
REMARK  210  A    between atoms: _551  and  _552
REMARK  211  A    between atoms: _552  and  _553
REMARK  212  A    between atoms: _555  and  _557
REMARK  213  A    between atoms: _557  and  _558
REMARK  214  A    between atoms: _557  and  _560
REMARK  215  A    between atoms: _560  and  _561
REMARK  216  A    between atoms: _566  and  _567
REMARK  217  A    between atoms: _569  and  _571
REMARK  218  A    between atoms: _571  and  _572
REMARK  219  A    between atoms: _571  and  _574
REMARK  220  A    between atoms: _574  and  _575
REMARK  221  A    between atoms: _575  and  _576
REMARK  222  A    between atoms: _576  and  _577
REMARK  223  A    between atoms: _586  and  _588
REMARK  224  A    between atoms: _588  and  _589
REMARK  225  A    between atoms: _588  and  _591
REMARK  226  A    between atoms: _591  and  _592
REMARK  227  A    between atoms: _597  and  _598
REMARK  228  A    between atoms: _600  and  _602
REMARK  229  A    between atoms: _602  and  _603
REMARK  230  A    between atoms: _602  and  _605
REMARK  231  A    between atoms: _605  and  _606
REMARK  232  A    between atoms: _606  and  _607
REMARK  233  A    between atoms: _610  and  _612
REMARK  234  A    between atoms: _612  and  _613
REMARK  235  A    between atoms: _612  and  _615
REMARK  236  A    between atoms: _615  and  _616
REMARK  237  A    between atoms: _616  and  _617
REMARK  238  A    between atoms: _617  and  _618
REMARK                            x       y       z     vdW  Elec       q    Type
REMARK                         _______ _______ _______ _____ _____    ______ ____
ROOT
ATOM      1  NE  ARG A   1      25.665  41.855  58.955  0.00  0.00    -0.265 N 
ATOM      2  HE  ARG A   1      26.686  41.670  58.878  0.00  0.00    +0.259 HD
ATOM      3  CZ  ARG A   1      24.829  40.834  58.768  0.00  0.00    +0.342 C 
ATOM      4  NH2 ARG A   1      23.515  41.044  58.867  0.00  0.00    -0.292 N 
ATOM      5 HH21 ARG A   1      23.155  41.995  59.087  0.00  0.00    +0.255 HD
ATOM      6 HH22 ARG A   1      22.850  40.257  58.724  0.00  0.00    +0.255 HD
ATOM      7  NH1 ARG A   1      25.301  39.605  58.522  0.00  0.00    -0.292 N 
ATOM      8 HH11 ARG A   1      26.327  39.442  58.476  0.00  0.00    +0.255 HD
ATOM      9 HH12 ARG A   1      24.641  38.814  58.377  0.00  0.00    +0.255 HD
ENDROOT
BRANCH   1  10
ATOM     10  CD  ARG A   1      25.233  43.229  59.264  0.00  0.00    +0.174 C 
BRANCH  10  11
ATOM     11  CG  ARG A   1      24.791  43.378  60.717  0.00  0.00    +0.045 C 
BRANCH  11  12
ATOM     12  CB  ARG A   1      25.984  43.302  61.646  0.00  0.00    +0.029 C 
BRANCH  12  13
ATOM     13  CA  ARG A   1      25.619  43.086  63.098  0.00  0.00    +0.133 C 
BRANCH  13  14
ATOM     14  N   ARG A   1      26.782  43.299  63.924  0.00  0.00    -0.239 NA
ATOM     15  H   ARG A   1      27.689  43.522  63.467  0.00  0.00    +0.142 HD
ENDBRANCH  13  14
BRANCH  13  16
ATOM     16  C   ARG A   1      25.068  41.678  63.298  0.00  0.00    +0.224 C 
ATOM     17  O   ARG A   1      23.866  41.477  63.392  0.00  0.00    -0.287 OA
ENDBRANCH  13  16
ENDBRANCH  12  13
ENDBRANCH  11  12
ENDBRANCH  10  11
ENDBRANCH   1  10
TORSDOF 6
REMARK  Name = ../refined-set-2016/3gx0/3gx0_pocket.pdb
REMARK  238 active torsions:
REMARK  status: ('A' for Active; 'I' for Inactive)
REMARK    1  A    between atoms: _1  and  _3
REMARK    2  A    between atoms: _3  and  _4
REMARK    3  A    between atoms: _3  and  _6
REMARK    4  A    between atoms: _6  and  _7
REMARK    5  A    between atoms: _12  and  _13
REMARK    6  A    between atoms: _15  and  _17
REMARK    7  A    between atoms: _17  and  _18
REMARK    8  A    between atoms: _17  and  _20
REMARK    9  A    between atoms: _20  and  _21
REMARK   10  A    between atoms: _27  and  _29
REMARK   11  A    between atoms: _29  and  _30
REMARK   12  A    between atoms: _34  and  _35
REMARK   13  A    between atoms: _40  and  _42
REMARK   14  A    between atoms: _42  and  _43
REMARK   15  A    between atoms: _42  and  _45
REMARK   16  A    between atoms: _45  and  _46
REMARK   17  A    between atoms: _50  and  _51
REMARK   18  A    between atoms: _56  and  _58
REMARK   19  A    between atoms: _58  and  _59
REMARK   20  A    between atoms: _58  and  _61
REMARK   21  A    between atoms: _61  and  _62
REMARK   22  A    between atoms: _67  and  _69
REMARK   23  A    between atoms: _69  and  _70
REMARK   24  A    between atoms: _72  and  _74
REMARK   25  A    between atoms: _74  and  _75
REMARK   26  A    between atoms: _74  and  _77
REMARK   27  A    between atoms: _77  and  _78
REMARK   28  A    between atoms: _83  and  _85
REMARK   29  A    between atoms: _85  and  _86
REMARK   30  A    between atoms: _85  and  _88
REMARK   31  A    between atoms: _88  and  _89
REMARK   32  A    between atoms: _89  and  _90
REMARK   33  A    between atoms: _90  and  _91
REMARK   34  A    between atoms: _91  and  _92
REMARK   35  A    between atoms: _96  and  _98
REMARK   36  A    between atoms: _98  and  _99
REMARK   37  A    between atoms: _98  and  _101
REMARK   38  A    between atoms: _101  and  _102
REMARK   39  A    between atoms: _105  and  _107
REMARK   40  A    between atoms: _107  and  _108
REMARK   41  A    between atoms: _107  and  _110
REMARK   42  A    between atoms: _113  and  _115
REMARK   43  A    between atoms: _115  and  _116
REMARK   44  A    between atoms: _115  and  _118
REMARK   45  A    between atoms: _118  and  _119
REMARK   46  A    between atoms: _122  and  _124
REMARK   47  A    between atoms: _124  and  _125
REMARK   48  A    between atoms: _124  and  _127
REMARK   49  A    between atoms: _127  and  _128
REMARK   50  A    between atoms: _131  and  _133
REMARK   51  A    between atoms: _133  and  _134
REMARK   52  A    between atoms: _136  and  _138
REMARK   53  A    between atoms: _138  and  _139
REMARK   54  A    between atoms: _141  and  _143
REMARK   55  A    between atoms: _143  and  _144
REMARK   56  A    between atoms: _143  and  _146
REMARK   57  A    between atoms: _146  and  _147
REMARK   58  A    between atoms: _147  and  _148
REMARK   59  A    between atoms: _153  and  _155
REMARK   60  A    between atoms: _155  and  _156
REMARK   61  A    between atoms: _155  and  _158
REMARK   62  A    between atoms: _158  and  _159
REMARK   63  A    between atoms: _165  and  _167
REMARK   64  A    between atoms: _167  and  _168
REMARK   65  A    between atoms: _167  and  _170
REMARK   66  A    between atoms: _170  and  _171
REMARK   67  A    between atoms: _177  and  _179
REMARK   68  A    between atoms: _179  and  _180
REMARK   69  A    between atoms: _179  and  _182
REMARK   70  A    between atoms: _182  and  _183
REMARK   71  A    between atoms: _185  and  _187
REMARK   72  A    between atoms: _187  and  _188
REMARK   73  A    between atoms: _187  and  _190
REMARK   74  A    between atoms: _190  and  _191
REMARK   75  A    between atoms: _196  and  _198
REMARK   76  A    between atoms: _198  and  _199
REMARK   77  A    between atoms: _198  and  _201
REMARK   78  A    between atoms: _201  and  _202
REMARK   79  A    between atoms: _207  and  _209
REMARK   80  A    between atoms: _209  and  _210
REMARK   81  A    between atoms: _209  and  _212
REMARK   82  A    between atoms: _212  and  _213
REMARK   83  A    between atoms: _213  and  _214
REMARK   84  A    between atoms: _214  and  _215
REMARK   85  A    between atoms: _215  and  _216
REMARK   86  A    between atoms: _220  and  _222
REMARK   87  A    between atoms: _222  and  _223
REMARK   88  A    between atoms: _222  and  _225
REMARK   89  A    between atoms: _225  and  _226
REMARK   90  A    between atoms: _230  and  _231
REMARK   91  A    between atoms: _236  and  _238
REMARK   92  A    between atoms: _238  and  _239
REMARK   93  A    between atoms: _242  and  _244
REMARK   94  A    between atoms: _244  and  _245
REMARK   95  A    between atoms: _244  and  _247
REMARK   96  A    between atoms: _247  and  _248
REMARK   97  A    between atoms: _254  and  _256
REMARK   98  A    between atoms: _256  and  _257
REMARK   99  A    between atoms: _256  and  _259
REMARK  100  A    between atoms: _259  and  _260
REMARK  101  A    between atoms: _260  and  _261
REMARK  102  A    between atoms: _264  and  _266
REMARK  103  A    between atoms: _266  and  _267
REMARK  104  A    between atoms: _266  and  _269
REMARK  105  A    between atoms: _269  and  _270
REMARK  106  A    between atoms: _272  and  _274
REMARK  107  A    between atoms: _274  and  _275
REMARK  108  A    between atoms: _277  and  _279
REMARK  109  A    between atoms: _279  and  _280
REMARK  110  A    between atoms: _283  and  _285
REMARK  111  A    between atoms: _285  and  _286
REMARK  112  A    between atoms: _285  and  _288
REMARK  113  A    between atoms: _288  and  _289
REMARK  114  A    between atoms: _292  and  _294
REMARK  115  A    between atoms: _294  and  _295
REMARK  116  A    between atoms: _294  and  _297
REMARK  117  A    between atoms: _297  and  _298
REMARK  118  A    between atoms: _301  and  _303
REMARK  119  A    between atoms: _303  and  _304
REMARK  120  A    between atoms: _303  and  _306
REMARK  121  A    between atoms: _306  and  _307
REMARK  122  A    between atoms: _307  and  _308
REMARK  123  A    between atoms: _313  and  _315
REMARK  124  A    between atoms: _315  and  _316
REMARK  125  A    between atoms: _315  and  _318
REMARK  126  A    between atoms: _321  and  _323
REMARK  127  A    between atoms: _323  and  _324
REMARK  128  A    between atoms: _326  and  _328
REMARK  129  A    between atoms: _328  and  _329
REMARK  130  A    between atoms: _331  and  _333
REMARK  131  A    between atoms: _333  and  _334
REMARK  132  A    between atoms: _333  and  _336
REMARK  133  A    between atoms: _336  and  _337
REMARK  134  A    between atoms: _340  and  _342
REMARK  135  A    between atoms: _342  and  _343
REMARK  136  A    between atoms: _346  and  _347
REMARK  137  A    between atoms: _352  and  _354
REMARK  138  A    between atoms: _354  and  _355
REMARK  139  A    between atoms: _354  and  _357
REMARK  140  A    between atoms: _357  and  _358
REMARK  141  A    between atoms: _358  and  _359
REMARK  142  A    between atoms: _361  and  _363
REMARK  143  A    between atoms: _363  and  _364
REMARK  144  A    between atoms: _363  and  _366
REMARK  145  A    between atoms: _366  and  _367
REMARK  146  A    between atoms: _370  and  _372
REMARK  147  A    between atoms: _372  and  _373
REMARK  148  A    between atoms: _375  and  _377
REMARK  149  A    between atoms: _377  and  _378
REMARK  150  A    between atoms: _377  and  _380
REMARK  151  A    between atoms: _380  and  _381
REMARK  152  A    between atoms: _381  and  _382
REMARK  153  A    between atoms: _387  and  _389
REMARK  154  A    between atoms: _389  and  _390
REMARK  155  A    between atoms: _389  and  _392
REMARK  156  A    between atoms: _392  and  _393
REMARK  157  A    between atoms: _398  and  _400
REMARK  158  A    between atoms: _400  and  _401
REMARK  159  A    between atoms: _400  and  _403
REMARK  160  A    between atoms: _403  and  _404
REMARK  161  A    between atoms: _409  and  _411
REMARK  162  A    between atoms: _411  and  _412
REMARK  163  A    between atoms: _411  and  _414
REMARK  164  A    between atoms: _414  and  _415
REMARK  165  A    between atoms: _420  and  _422
REMARK  166  A    between atoms: _422  and  _423
REMARK  167  A    between atoms: _422  and  _425
REMARK  168  A    between atoms: _425  and  _426
REMARK  169  A    between atoms: _432  and  _434
REMARK  170  A    between atoms: _434  and  _435
REMARK  171  A    between atoms: _438  and  _440
REMARK  172  A    between atoms: _440  and  _441
REMARK  173  A    between atoms: _444  and  _446
REMARK  174  A    between atoms: _446  and  _447
REMARK  175  A    between atoms: _446  and  _449
REMARK  176  A    between atoms: _449  and  _450
REMARK  177  A    between atoms: _460  and  _462
REMARK  178  A    between atoms: _462  and  _463
REMARK  179  A    between atoms: _462  and  _465
REMARK  180  A    between atoms: _465  and  _466
REMARK  181  A    between atoms: _466  and  _467
REMARK  182  A    between atoms: _472  and  _474
REMARK  183  A    between atoms: _474  and  _475
REMARK  184  A    between atoms: _474  and  _477
REMARK  185  A    between atoms: _477  and  _478
REMARK  186  A    between atoms: _484  and  _486
REMARK  187  A    between atoms: _486  and  _487
REMARK  188  A    between atoms: _486  and  _489
REMARK  189  A    between atoms: _489  and  _490
REMARK  190  A    between atoms: _500  and  _502
REMARK  191  A    between atoms: _502  and  _503
REMARK  192  A    between atoms: _502  and  _505
REMARK  193  A    between atoms: _505  and  _506
REMARK  194  A    between atoms: _506  and  _507
REMARK  195  A    between atoms: _512  and  _514
REMARK  196  A    between atoms: _514  and  _515
REMARK  197  A    between atoms: _514  and  _517
REMARK  198  A    between atoms: _520  and  _522
REMARK  199  A    between atoms: _522  and  _523
REMARK  200  A    between atoms: _525  and  _527
REMARK  201  A    between atoms: _527  and  _528
REMARK  202  A    between atoms: _530  and  _532
REMARK  203  A    between atoms: _532  and  _533
REMARK  204  A    between atoms: _532  and  _535
REMARK  205  A    between atoms: _535  and  _536
REMARK  206  A    between atoms: _540  and  _541
REMARK  207  A    between atoms: _546  and  _548
REMARK  208  A    between atoms: _548  and  _549
REMARK  209  A    between atoms: _548  and  _551
REMARK  210  A    between atoms: _551  and  _552
REMARK  211  A    between atoms: _552  and  _553
REMARK  212  A    between atoms: _555  and  _557
REMARK  213  A    between atoms: _557  and  _558
REMARK  214  A    between atoms: _557  and  _560
REMARK  215  A    between atoms: _560  and  _561
REMARK  216  A    between atoms: _566  and  _567
REMARK  217  A    between atoms: _569  and  _571
REMARK  218  A    between atoms: _571  and  _572
REMARK  219  A    between atoms: _571  and  _574
REMARK  220  A    between atoms: _574  and  _575
REMARK  221  A    between atoms: _575  and  _576
REMARK  222  A    between atoms: _576  and  _577
REMARK  223  A    between atoms: _586  and  _588
REMARK  224  A    between atoms: _588  and  _589
REMARK  225  A    between atoms: _588  and  _591
REMARK  226  A    between atoms: _591  and  _592
REMARK  227  A    between atoms: _597  and  _598
REMARK  228  A    between atoms: _600  and  _602
REMARK  229  A    between atoms: _602  and  _603
REMARK  230  A    between atoms: _602  and  _605
REMARK  231  A    between atoms: _605  and  _606
REMARK  232  A    between atoms: _606  and  _607
REMARK  233  A    between atoms: _610  and  _612
REMARK  234  A    between atoms: _612  and  _613
REMARK  235  A    between atoms: _612  and  _615
REMARK  236  A    between atoms: _615  and  _616
REMARK  237  A    between atoms: _616  and  _617
REMARK  238  A    between atoms: _617  and  _618
REMARK                            x       y       z     vdW  Elec       q    Type
REMARK                         _______ _______ _______ _____ _____    ______ ____
ROOT
ATOM      1  O   HOH     1      24.916  33.619  57.137  0.00  0.00    +0.000 OA
ENDROOT
TORSDOF 0
REMARK  Name = ../refined-set-2016/3gx0/3gx0_pocket.pdb
REMARK  238 active torsions:
REMARK  status: ('A' for Active; 'I' for Inactive)
REMARK    1  A    between atoms: _1  and  _3
REMARK    2  A    between atoms: _3  and  _4
REMARK    3  A    between atoms: _3  and  _6
REMARK    4  A    between atoms: _6  and  _7
REMARK    5  A    between atoms: _12  and  _13
REMARK    6  A    between atoms: _15  and  _17
REMARK    7  A    between atoms: _17  and  _18
REMARK    8  A    between atoms: _17  and  _20
REMARK    9  A    between atoms: _20  and  _21
REMARK   10  A    between atoms: _27  and  _29
REMARK   11  A    between atoms: _29  and  _30
REMARK   12  A    between atoms: _34  and  _35
REMARK   13  A    between atoms: _40  and  _42
REMARK   14  A    between atoms: _42  and  _43
REMARK   15  A    between atoms: _42  and  _45
REMARK   16  A    between atoms: _45  and  _46
REMARK   17  A    between atoms: _50  and  _51
REMARK   18  A    between atoms: _56  and  _58
REMARK   19  A    between atoms: _58  and  _59
REMARK   20  A    between atoms: _58  and  _61
REMARK   21  A    between atoms: _61  and  _62
REMARK   22  A    between atoms: _67  and  _69
REMARK   23  A    between atoms: _69  and  _70
REMARK   24  A    between atoms: _72  and  _74
REMARK   25  A    between atoms: _74  and  _75
REMARK   26  A    between atoms: _74  and  _77
REMARK   27  A    between atoms: _77  and  _78
REMARK   28  A    between atoms: _83  and  _85
REMARK   29  A    between atoms: _85  and  _86
REMARK   30  A    between atoms: _85  and  _88
REMARK   31  A    between atoms: _88  and  _89
REMARK   32  A    between atoms: _89  and  _90
REMARK   33  A    between atoms: _90  and  _91
REMARK   34  A    between atoms: _91  and  _92
REMARK   35  A    between atoms: _96  and  _98
REMARK   36  A    between atoms: _98  and  _99
REMARK   37  A    between atoms: _98  and  _101
REMARK   38  A    between atoms: _101  and  _102
REMARK   39  A    between atoms: _105  and  _107
REMARK   40  A    between atoms: _107  and  _108
REMARK   41  A    between atoms: _107  and  _110
REMARK   42  A    between atoms: _113  and  _115
REMARK   43  A    between atoms: _115  and  _116
REMARK   44  A    between atoms: _115  and  _118
REMARK   45  A    between atoms: _118  and  _119
REMARK   46  A    between atoms: _122  and  _124
REMARK   47  A    between atoms: _124  and  _125
REMARK   48  A    between atoms: _124  and  _127
REMARK   49  A    between atoms: _127  and  _128
REMARK   50  A    between atoms: _131  and  _133
REMARK   51  A    between atoms: _133  and  _134
REMARK   52  A    between atoms: _136  and  _138
REMARK   53  A    between atoms: _138  and  _139
REMARK   54  A    between atoms: _141  and  _143
REMARK   55  A    between atoms: _143  and  _144
REMARK   56  A    between atoms: _143  and  _146
REMARK   57  A    between atoms: _146  and  _147
REMARK   58  A    between atoms: _147  and  _148
REMARK   59  A    between atoms: _153  and  _155
REMARK   60  A    between atoms: _155  and  _156
REMARK   61  A    between atoms: _155  and  _158
REMARK   62  A    between atoms: _158  and  _159
REMARK   63  A    between atoms: _165  and  _167
REMARK   64  A    between atoms: _167  and  _168
REMARK   65  A    between atoms: _167  and  _170
REMARK   66  A    between atoms: _170  and  _171
REMARK   67  A    between atoms: _177  and  _179
REMARK   68  A    between atoms: _179  and  _180
REMARK   69  A    between atoms: _179  and  _182
REMARK   70  A    between atoms: _182  and  _183
REMARK   71  A    between atoms: _185  and  _187
REMARK   72  A    between atoms: _187  and  _188
REMARK   73  A    between atoms: _187  and  _190
REMARK   74  A    between atoms: _190  and  _191
REMARK   75  A    between atoms: _196  and  _198
REMARK   76  A    between atoms: _198  and  _199
REMARK   77  A    between atoms: _198  and  _201
REMARK   78  A    between atoms: _201  and  _202
REMARK   79  A    between atoms: _207  and  _209
REMARK   80  A    between atoms: _209  and  _210
REMARK   81  A    between atoms: _209  and  _212
REMARK   82  A    between atoms: _212  and  _213
REMARK   83  A    between atoms: _213  and  _214
REMARK   84  A    between atoms: _214  and  _215
REMARK   85  A    between atoms: _215  and  _216
REMARK   86  A    between atoms: _220  and  _222
REMARK   87  A    between atoms: _222  and  _223
REMARK   88  A    between atoms: _222  and  _225
REMARK   89  A    between atoms: _225  and  _226
REMARK   90  A    between atoms: _230  and  _231
REMARK   91  A    between atoms: _236  and  _238
REMARK   92  A    between atoms: _238  and  _239
REMARK   93  A    between atoms: _242  and  _244
REMARK   94  A    between atoms: _244  and  _245
REMARK   95  A    between atoms: _244  and  _247
REMARK   96  A    between atoms: _247  and  _248
REMARK   97  A    between atoms: _254  and  _256
REMARK   98  A    between atoms: _256  and  _257
REMARK   99  A    between atoms: _256  and  _259
REMARK  100  A    between atoms: _259  and  _260
REMARK  101  A    between atoms: _260  and  _261
REMARK  102  A    between atoms: _264  and  _266
REMARK  103  A    between atoms: _266  and  _267
REMARK  104  A    between atoms: _266  and  _269
REMARK  105  A    between atoms: _269  and  _270
REMARK  106  A    between atoms: _272  and  _274
REMARK  107  A    between atoms: _274  and  _275
REMARK  108  A    between atoms: _277  and  _279
REMARK  109  A    between atoms: _279  and  _280
REMARK  110  A    between atoms: _283  and  _285
REMARK  111  A    between atoms: _285  and  _286
REMARK  112  A    between atoms: _285  and  _288
REMARK  113  A    between atoms: _288  and  _289
REMARK  114  A    between atoms: _292  and  _294
REMARK  115  A    between atoms: _294  and  _295
REMARK  116  A    between atoms: _294  and  _297
REMARK  117  A    between atoms: _297  and  _298
REMARK  118  A    between atoms: _301  and  _303
REMARK  119  A    between atoms: _303  and  _304
REMARK  120  A    between atoms: _303  and  _306
REMARK  121  A    between atoms: _306  and  _307
REMARK  122  A    between atoms: _307  and  _308
REMARK  123  A    between atoms: _313  and  _315
REMARK  124  A    between atoms: _315  and  _316
REMARK  125  A    between atoms: _315  and  _318
REMARK  126  A    between atoms: _321  and  _323
REMARK  127  A    between atoms: _323  and  _324
REMARK  128  A    between atoms: _326  and  _328
REMARK  129  A    between atoms: _328  and  _329
REMARK  130  A    between atoms: _331  and  _333
REMARK  131  A    between atoms: _333  and  _334
REMARK  132  A    between atoms: _333  and  _336
REMARK  133  A    between atoms: _336  and  _337
REMARK  134  A    between atoms: _340  and  _342
REMARK  135  A    between atoms: _342  and  _343
REMARK  136  A    between atoms: _346  and  _347
REMARK  137  A    between atoms: _352  and  _354
REMARK  138  A    between atoms: _354  and  _355
REMARK  139  A    between atoms: _354  and  _357
REMARK  140  A    between atoms: _357  and  _358
REMARK  141  A    between atoms: _358  and  _359
REMARK  142  A    between atoms: _361  and  _363
REMARK  143  A    between atoms: _363  and  _364
REMARK  144  A    between atoms: _363  and  _366
REMARK  145  A    between atoms: _366  and  _367
REMARK  146  A    between atoms: _370  and  _372
REMARK  147  A    between atoms: _372  and  _373
REMARK  148  A    between atoms: _375  and  _377
REMARK  149  A    between atoms: _377  and  _378
REMARK  150  A    between atoms: _377  and  _380
REMARK  151  A    between atoms: _380  and  _381
REMARK  152  A    between atoms: _381  and  _382
REMARK  153  A    between atoms: _387  and  _389
REMARK  154  A    between atoms: _389  and  _390
REMARK  155  A    between atoms: _389  and  _392
REMARK  156  A    between atoms: _392  and  _393
REMARK  157  A    between atoms: _398  and  _400
REMARK  158  A    between atoms: _400  and  _401
REMARK  159  A    between atoms: _400  and  _403
REMARK  160  A    between atoms: _403  and  _404
REMARK  161  A    between atoms: _409  and  _411
REMARK  162  A    between atoms: _411  and  _412
REMARK  163  A    between atoms: _411  and  _414
REMARK  164  A    between atoms: _414  and  _415
REMARK  165  A    between atoms: _420  and  _422
REMARK  166  A    between atoms: _422  and  _423
REMARK  167  A    between atoms: _422  and  _425
REMARK  168  A    between atoms: _425  and  _426
REMARK  169  A    between atoms: _432  and  _434
REMARK  170  A    between atoms: _434  and  _435
REMARK  171  A    between atoms: _438  and  _440
REMARK  172  A    between atoms: _440  and  _441
REMARK  173  A    between atoms: _444  and  _446
REMARK  174  A    between atoms: _446  and  _447
REMARK  175  A    between atoms: _446  and  _449
REMARK  176  A    between atoms: _449  and  _450
REMARK  177  A    between atoms: _460  and  _462
REMARK  178  A    between atoms: _462  and  _463
REMARK  179  A    between atoms: _462  and  _465
REMARK  180  A    between atoms: _465  and  _466
REMARK  181  A    between atoms: _466  and  _467
REMARK  182  A    between atoms: _472  and  _474
REMARK  183  A    between atoms: _474  and  _475
REMARK  184  A    between atoms: _474  and  _477
REMARK  185  A    between atoms: _477  and  _478
REMARK  186  A    between atoms: _484  and  _486
REMARK  187  A    between atoms: _486  and  _487
REMARK  188  A    between atoms: _486  and  _489
REMARK  189  A    between atoms: _489  and  _490
REMARK  190  A    between atoms: _500  and  _502
REMARK  191  A    between atoms: _502  and  _503
REMARK  192  A    between atoms: _502  and  _505
REMARK  193  A    between atoms: _505  and  _506
REMARK  194  A    between atoms: _506  and  _507
REMARK  195  A    between atoms: _512  and  _514
REMARK  196  A    between atoms: _514  and  _515
REMARK  197  A    between atoms: _514  and  _517
REMARK  198  A    between atoms: _520  and  _522
REMARK  199  A    between atoms: _522  and  _523
REMARK  200  A    between atoms: _525  and  _527
REMARK  201  A    between atoms: _527  and  _528
REMARK  202  A    between atoms: _530  and  _532
REMARK  203  A    between atoms: _532  and  _533
REMARK  204  A    between atoms: _532  and  _535
REMARK  205  A    between atoms: _535  and  _536
REMARK  206  A    between atoms: _540  and  _541
REMARK  207  A    between atoms: _546  and  _548
REMARK  208  A    between atoms: _548  and  _549
REMARK  209  A    between atoms: _548  and  _551
REMARK  210  A    between atoms: _551  and  _552
REMARK  211  A    between atoms: _552  and  _553
REMARK  212  A    between atoms: _555  and  _557
REMARK  213  A    between atoms: _557  and  _558
REMARK  214  A    between atoms: _557  and  _560
REMARK  215  A    between atoms: _560  and  _561
REMARK  216  A    between atoms: _566  and  _567
REMARK  217  A    between atoms: _569  and  _571
REMARK  218  A    between atoms: _571  and  _572
REMARK  219  A    between atoms: _571  and  _574
REMARK  220  A    between atoms: _574  and  _575
REMARK  221  A    between atoms: _575  and  _576
REMARK  222  A    between atoms: _576  and  _577
REMARK  223  A    between atoms: _586  and  _588
REMARK  224  A    between atoms: _588  and  _589
REMARK  225  A    between atoms: _588  and  _591
REMARK  226  A    between atoms: _591  and  _592
REMARK  227  A    between atoms: _597  and  _598
REMARK  228  A    between atoms: _600  and  _602
REMARK  229  A    between atoms: _602  and  _603
REMARK  230  A    between atoms: _602  and  _605
REMARK  231  A    between atoms: _605  and  _606
REMARK  232  A    between atoms: _606  and  _607
REMARK  233  A    between atoms: _610  and  _612
REMARK  234  A    between atoms: _612  and  _613
REMARK  235  A    between atoms: _612  and  _615
REMARK  236  A    between atoms: _615  and  _616
REMARK  237  A    between atoms: _616  and  _617
REMARK  238  A    between atoms: _617  and  _618
REMARK                            x       y       z     vdW  Elec       q    Type
REMARK                         _______ _______ _______ _____ _____    ______ ____
ROOT
ATOM      1  O   HOH     1      23.285  29.495  53.259  0.00  0.00    +0.000 OA
ENDROOT
TORSDOF 0
REMARK  Name = ../refined-set-2016/3gx0/3gx0_pocket.pdb
REMARK  238 active torsions:
REMARK  status: ('A' for Active; 'I' for Inactive)
REMARK    1  A    between atoms: _1  and  _3
REMARK    2  A    between atoms: _3  and  _4
REMARK    3  A    between atoms: _3  and  _6
REMARK    4  A    between atoms: _6  and  _7
REMARK    5  A    between atoms: _12  and  _13
REMARK    6  A    between atoms: _15  and  _17
REMARK    7  A    between atoms: _17  and  _18
REMARK    8  A    between atoms: _17  and  _20
REMARK    9  A    between atoms: _20  and  _21
REMARK   10  A    between atoms: _27  and  _29
REMARK   11  A    between atoms: _29  and  _30
REMARK   12  A    between atoms: _34  and  _35
REMARK   13  A    between atoms: _40  and  _42
REMARK   14  A    between atoms: _42  and  _43
REMARK   15  A    between atoms: _42  and  _45
REMARK   16  A    between atoms: _45  and  _46
REMARK   17  A    between atoms: _50  and  _51
REMARK   18  A    between atoms: _56  and  _58
REMARK   19  A    between atoms: _58  and  _59
REMARK   20  A    between atoms: _58  and  _61
REMARK   21  A    between atoms: _61  and  _62
REMARK   22  A    between atoms: _67  and  _69
REMARK   23  A    between atoms: _69  and  _70
REMARK   24  A    between atoms: _72  and  _74
REMARK   25  A    between atoms: _74  and  _75
REMARK   26  A    between atoms: _74  and  _77
REMARK   27  A    between atoms: _77  and  _78
REMARK   28  A    between atoms: _83  and  _85
REMARK   29  A    between atoms: _85  and  _86
REMARK   30  A    between atoms: _85  and  _88
REMARK   31  A    between atoms: _88  and  _89
REMARK   32  A    between atoms: _89  and  _90
REMARK   33  A    between atoms: _90  and  _91
REMARK   34  A    between atoms: _91  and  _92
REMARK   35  A    between atoms: _96  and  _98
REMARK   36  A    between atoms: _98  and  _99
REMARK   37  A    between atoms: _98  and  _101
REMARK   38  A    between atoms: _101  and  _102
REMARK   39  A    between atoms: _105  and  _107
REMARK   40  A    between atoms: _107  and  _108
REMARK   41  A    between atoms: _107  and  _110
REMARK   42  A    between atoms: _113  and  _115
REMARK   43  A    between atoms: _115  and  _116
REMARK   44  A    between atoms: _115  and  _118
REMARK   45  A    between atoms: _118  and  _119
REMARK   46  A    between atoms: _122  and  _124
REMARK   47  A    between atoms: _124  and  _125
REMARK   48  A    between atoms: _124  and  _127
REMARK   49  A    between atoms: _127  and  _128
REMARK   50  A    between atoms: _131  and  _133
REMARK   51  A    between atoms: _133  and  _134
REMARK   52  A    between atoms: _136  and  _138
REMARK   53  A    between atoms: _138  and  _139
REMARK   54  A    between atoms: _141  and  _143
REMARK   55  A    between atoms: _143  and  _144
REMARK   56  A    between atoms: _143  and  _146
REMARK   57  A    between atoms: _146  and  _147
REMARK   58  A    between atoms: _147  and  _148
REMARK   59  A    between atoms: _153  and  _155
REMARK   60  A    between atoms: _155  and  _156
REMARK   61  A    between atoms: _155  and  _158
REMARK   62  A    between atoms: _158  and  _159
REMARK   63  A    between atoms: _165  and  _167
REMARK   64  A    between atoms: _167  and  _168
REMARK   65  A    between atoms: _167  and  _170
REMARK   66  A    between atoms: _170  and  _171
REMARK   67  A    between atoms: _177  and  _179
REMARK   68  A    between atoms: _179  and  _180
REMARK   69  A    between atoms: _179  and  _182
REMARK   70  A    between atoms: _182  and  _183
REMARK   71  A    between atoms: _185  and  _187
REMARK   72  A    between atoms: _187  and  _188
REMARK   73  A    between atoms: _187  and  _190
REMARK   74  A    between atoms: _190  and  _191
REMARK   75  A    between atoms: _196  and  _198
REMARK   76  A    between atoms: _198  and  _199
REMARK   77  A    between atoms: _198  and  _201
REMARK   78  A    between atoms: _201  and  _202
REMARK   79  A    between atoms: _207  and  _209
REMARK   80  A    between atoms: _209  and  _210
REMARK   81  A    between atoms: _209  and  _212
REMARK   82  A    between atoms: _212  and  _213
REMARK   83  A    between atoms: _213  and  _214
REMARK   84  A    between atoms: _214  and  _215
REMARK   85  A    between atoms: _215  and  _216
REMARK   86  A    between atoms: _220  and  _222
REMARK   87  A    between atoms: _222  and  _223
REMARK   88  A    between atoms: _222  and  _225
REMARK   89  A    between atoms: _225  and  _226
REMARK   90  A    between atoms: _230  and  _231
REMARK   91  A    between atoms: _236  and  _238
REMARK   92  A    between atoms: _238  and  _239
REMARK   93  A    between atoms: _242  and  _244
REMARK   94  A    between atoms: _244  and  _245
REMARK   95  A    between atoms: _244  and  _247
REMARK   96  A    between atoms: _247  and  _248
REMARK   97  A    between atoms: _254  and  _256
REMARK   98  A    between atoms: _256  and  _257
REMARK   99  A    between atoms: _256  and  _259
REMARK  100  A    between atoms: _259  and  _260
REMARK  101  A    between atoms: _260  and  _261
REMARK  102  A    between atoms: _264  and  _266
REMARK  103  A    between atoms: _266  and  _267
REMARK  104  A    between atoms: _266  and  _269
REMARK  105  A    between atoms: _269  and  _270
REMARK  106  A    between atoms: _272  and  _274
REMARK  107  A    between atoms: _274  and  _275
REMARK  108  A    between atoms: _277  and  _279
REMARK  109  A    between atoms: _279  and  _280
REMARK  110  A    between atoms: _283  and  _285
REMARK  111  A    between atoms: _285  and  _286
REMARK  112  A    between atoms: _285  and  _288
REMARK  113  A    between atoms: _288  and  _289
REMARK  114  A    between atoms: _292  and  _294
REMARK  115  A    between atoms: _294  and  _295
REMARK  116  A    between atoms: _294  and  _297
REMARK  117  A    between atoms: _297  and  _298
REMARK  118  A    between atoms: _301  and  _303
REMARK  119  A    between atoms: _303  and  _304
REMARK  120  A    between atoms: _303  and  _306
REMARK  121  A    between atoms: _306  and  _307
REMARK  122  A    between atoms: _307  and  _308
REMARK  123  A    between atoms: _313  and  _315
REMARK  124  A    between atoms: _315  and  _316
REMARK  125  A    between atoms: _315  and  _318
REMARK  126  A    between atoms: _321  and  _323
REMARK  127  A    between atoms: _323  and  _324
REMARK  128  A    between atoms: _326  and  _328
REMARK  129  A    between atoms: _328  and  _329
REMARK  130  A    between atoms: _331  and  _333
REMARK  131  A    between atoms: _333  and  _334
REMARK  132  A    between atoms: _333  and  _336
REMARK  133  A    between atoms: _336  and  _337
REMARK  134  A    between atoms: _340  and  _342
REMARK  135  A    between atoms: _342  and  _343
REMARK  136  A    between atoms: _346  and  _347
REMARK  137  A    between atoms: _352  and  _354
REMARK  138  A    between atoms: _354  and  _355
REMARK  139  A    between atoms: _354  and  _357
REMARK  140  A    between atoms: _357  and  _358
REMARK  141  A    between atoms: _358  and  _359
REMARK  142  A    between atoms: _361  and  _363
REMARK  143  A    between atoms: _363  and  _364
REMARK  144  A    between atoms: _363  and  _366
REMARK  145  A    between atoms: _366  and  _367
REMARK  146  A    between atoms: _370  and  _372
REMARK  147  A    between atoms: _372  and  _373
REMARK  148  A    between atoms: _375  and  _377
REMARK  149  A    between atoms: _377  and  _378
REMARK  150  A    between atoms: _377  and  _380
REMARK  151  A    between atoms: _380  and  _381
REMARK  152  A    between atoms: _381  and  _382
REMARK  153  A    between atoms: _387  and  _389
REMARK  154  A    between atoms: _389  and  _390
REMARK  155  A    between atoms: _389  and  _392
REMARK  156  A    between atoms: _392  and  _393
REMARK  157  A    between atoms: _398  and  _400
REMARK  158  A    between atoms: _400  and  _401
REMARK  159  A    between atoms: _400  and  _403
REMARK  160  A    between atoms: _403  and  _404
REMARK  161  A    between atoms: _409  and  _411
REMARK  162  A    between atoms: _411  and  _412
REMARK  163  A    between atoms: _411  and  _414
REMARK  164  A    between atoms: _414  and  _415
REMARK  165  A    between atoms: _420  and  _422
REMARK  166  A    between atoms: _422  and  _423
REMARK  167  A    between atoms: _422  and  _425
REMARK  168  A    between atoms: _425  and  _426
REMARK  169  A    between atoms: _432  and  _434
REMARK  170  A    between atoms: _434  and  _435
REMARK  171  A    between atoms: _438  and  _440
REMARK  172  A    between atoms: _440  and  _441
REMARK  173  A    between atoms: _444  and  _446
REMARK  174  A    between atoms: _446  and  _447
REMARK  175  A    between atoms: _446  and  _449
REMARK  176  A    between atoms: _449  and  _450
REMARK  177  A    between atoms: _460  and  _462
REMARK  178  A    between atoms: _462  and  _463
REMARK  179  A    between atoms: _462  and  _465
REMARK  180  A    between atoms: _465  and  _466
REMARK  181  A    between atoms: _466  and  _467
REMARK  182  A    between atoms: _472  and  _474
REMARK  183  A    between atoms: _474  and  _475
REMARK  184  A    between atoms: _474  and  _477
REMARK  185  A    between atoms: _477  and  _478
REMARK  186  A    between atoms: _484  and  _486
REMARK  187  A    between atoms: _486  and  _487
REMARK  188  A    between atoms: _486  and  _489
REMARK  189  A    between atoms: _489  and  _490
REMARK  190  A    between atoms: _500  and  _502
REMARK  191  A    between atoms: _502  and  _503
REMARK  192  A    between atoms: _502  and  _505
REMARK  193  A    between atoms: _505  and  _506
REMARK  194  A    between atoms: _506  and  _507
REMARK  195  A    between atoms: _512  and  _514
REMARK  196  A    between atoms: _514  and  _515
REMARK  197  A    between atoms: _514  and  _517
REMARK  198  A    between atoms: _520  and  _522
REMARK  199  A    between atoms: _522  and  _523
REMARK  200  A    between atoms: _525  and  _527
REMARK  201  A    between atoms: _527  and  _528
REMARK  202  A    between atoms: _530  and  _532
REMARK  203  A    between atoms: _532  and  _533
REMARK  204  A    between atoms: _532  and  _535
REMARK  205  A    between atoms: _535  and  _536
REMARK  206  A    between atoms: _540  and  _541
REMARK  207  A    between atoms: _546  and  _548
REMARK  208  A    between atoms: _548  and  _549
REMARK  209  A    between atoms: _548  and  _551
REMARK  210  A    between atoms: _551  and  _552
REMARK  211  A    between atoms: _552  and  _553
REMARK  212  A    between atoms: _555  and  _557
REMARK  213  A    between atoms: _557  and  _558
REMARK  214  A    between atoms: _557  and  _560
REMARK  215  A    between atoms: _560  and  _561
REMARK  216  A    between atoms: _566  and  _567
REMARK  217  A    between atoms: _569  and  _571
REMARK  218  A    between atoms: _571  and  _572
REMARK  219  A    between atoms: _571  and  _574
REMARK  220  A    between atoms: _574  and  _575
REMARK  221  A    between atoms: _575  and  _576
REMARK  222  A    between atoms: _576  and  _577
REMARK  223  A    between atoms: _586  and  _588
REMARK  224  A    between atoms: _588  and  _589
REMARK  225  A    between atoms: _588  and  _591
REMARK  226  A    between atoms: _591  and  _592
REMARK  227  A    between atoms: _597  and  _598
REMARK  228  A    between atoms: _600  and  _602
REMARK  229  A    between atoms: _602  and  _603
REMARK  230  A    between atoms: _602  and  _605
REMARK  231  A    between atoms: _605  and  _606
REMARK  232  A    between atoms: _606  and  _607
REMARK  233  A    between atoms: _610  and  _612
REMARK  234  A    between atoms: _612  and  _613
REMARK  235  A    between atoms: _612  and  _615
REMARK  236  A    between atoms: _615  and  _616
REMARK  237  A    between atoms: _616  and  _617
REMARK  238  A    between atoms: _617  and  _618
REMARK                            x       y       z     vdW  Elec       q    Type
REMARK                         _______ _______ _______ _____ _____    ______ ____
ROOT
ATOM      1  O   HOH     1      27.104  36.854  39.830  0.00  0.00    +0.000 OA
ENDROOT
TORSDOF 0
REMARK  Name = ../refined-set-2016/3gx0/3gx0_pocket.pdb
REMARK  238 active torsions:
REMARK  status: ('A' for Active; 'I' for Inactive)
REMARK    1  A    between atoms: _1  and  _3
REMARK    2  A    between atoms: _3  and  _4
REMARK    3  A    between atoms: _3  and  _6
REMARK    4  A    between atoms: _6  and  _7
REMARK    5  A    between atoms: _12  and  _13
REMARK    6  A    between atoms: _15  and  _17
REMARK    7  A    between atoms: _17  and  _18
REMARK    8  A    between atoms: _17  and  _20
REMARK    9  A    between atoms: _20  and  _21
REMARK   10  A    between atoms: _27  and  _29
REMARK   11  A    between atoms: _29  and  _30
REMARK   12  A    between atoms: _34  and  _35
REMARK   13  A    between atoms: _40  and  _42
REMARK   14  A    between atoms: _42  and  _43
REMARK   15  A    between atoms: _42  and  _45
REMARK   16  A    between atoms: _45  and  _46
REMARK   17  A    between atoms: _50  and  _51
REMARK   18  A    between atoms: _56  and  _58
REMARK   19  A    between atoms: _58  and  _59
REMARK   20  A    between atoms: _58  and  _61
REMARK   21  A    between atoms: _61  and  _62
REMARK   22  A    between atoms: _67  and  _69
REMARK   23  A    between atoms: _69  and  _70
REMARK   24  A    between atoms: _72  and  _74
REMARK   25  A    between atoms: _74  and  _75
REMARK   26  A    between atoms: _74  and  _77
REMARK   27  A    between atoms: _77  and  _78
REMARK   28  A    between atoms: _83  and  _85
REMARK   29  A    between atoms: _85  and  _86
REMARK   30  A    between atoms: _85  and  _88
REMARK   31  A    between atoms: _88  and  _89
REMARK   32  A    between atoms: _89  and  _90
REMARK   33  A    between atoms: _90  and  _91
REMARK   34  A    between atoms: _91  and  _92
REMARK   35  A    between atoms: _96  and  _98
REMARK   36  A    between atoms: _98  and  _99
REMARK   37  A    between atoms: _98  and  _101
REMARK   38  A    between atoms: _101  and  _102
REMARK   39  A    between atoms: _105  and  _107
REMARK   40  A    between atoms: _107  and  _108
REMARK   41  A    between atoms: _107  and  _110
REMARK   42  A    between atoms: _113  and  _115
REMARK   43  A    between atoms: _115  and  _116
REMARK   44  A    between atoms: _115  and  _118
REMARK   45  A    between atoms: _118  and  _119
REMARK   46  A    between atoms: _122  and  _124
REMARK   47  A    between atoms: _124  and  _125
REMARK   48  A    between atoms: _124  and  _127
REMARK   49  A    between atoms: _127  and  _128
REMARK   50  A    between atoms: _131  and  _133
REMARK   51  A    between atoms: _133  and  _134
REMARK   52  A    between atoms: _136  and  _138
REMARK   53  A    between atoms: _138  and  _139
REMARK   54  A    between atoms: _141  and  _143
REMARK   55  A    between atoms: _143  and  _144
REMARK   56  A    between atoms: _143  and  _146
REMARK   57  A    between atoms: _146  and  _147
REMARK   58  A    between atoms: _147  and  _148
REMARK   59  A    between atoms: _153  and  _155
REMARK   60  A    between atoms: _155  and  _156
REMARK   61  A    between atoms: _155  and  _158
REMARK   62  A    between atoms: _158  and  _159
REMARK   63  A    between atoms: _165  and  _167
REMARK   64  A    between atoms: _167  and  _168
REMARK   65  A    between atoms: _167  and  _170
REMARK   66  A    between atoms: _170  and  _171
REMARK   67  A    between atoms: _177  and  _179
REMARK   68  A    between atoms: _179  and  _180
REMARK   69  A    between atoms: _179  and  _182
REMARK   70  A    between atoms: _182  and  _183
REMARK   71  A    between atoms: _185  and  _187
REMARK   72  A    between atoms: _187  and  _188
REMARK   73  A    between atoms: _187  and  _190
REMARK   74  A    between atoms: _190  and  _191
REMARK   75  A    between atoms: _196  and  _198
REMARK   76  A    between atoms: _198  and  _199
REMARK   77  A    between atoms: _198  and  _201
REMARK   78  A    between atoms: _201  and  _202
REMARK   79  A    between atoms: _207  and  _209
REMARK   80  A    between atoms: _209  and  _210
REMARK   81  A    between atoms: _209  and  _212
REMARK   82  A    between atoms: _212  and  _213
REMARK   83  A    between atoms: _213  and  _214
REMARK   84  A    between atoms: _214  and  _215
REMARK   85  A    between atoms: _215  and  _216
REMARK   86  A    between atoms: _220  and  _222
REMARK   87  A    between atoms: _222  and  _223
REMARK   88  A    between atoms: _222  and  _225
REMARK   89  A    between atoms: _225  and  _226
REMARK   90  A    between atoms: _230  and  _231
REMARK   91  A    between atoms: _236  and  _238
REMARK   92  A    between atoms: _238  and  _239
REMARK   93  A    between atoms: _242  and  _244
REMARK   94  A    between atoms: _244  and  _245
REMARK   95  A    between atoms: _244  and  _247
REMARK   96  A    between atoms: _247  and  _248
REMARK   97  A    between atoms: _254  and  _256
REMARK   98  A    between atoms: _256  and  _257
REMARK   99  A    between atoms: _256  and  _259
REMARK  100  A    between atoms: _259  and  _260
REMARK  101  A    between atoms: _260  and  _261
REMARK  102  A    between atoms: _264  and  _266
REMARK  103  A    between atoms: _266  and  _267
REMARK  104  A    between atoms: _266  and  _269
REMARK  105  A    between atoms: _269  and  _270
REMARK  106  A    between atoms: _272  and  _274
REMARK  107  A    between atoms: _274  and  _275
REMARK  108  A    between atoms: _277  and  _279
REMARK  109  A    between atoms: _279  and  _280
REMARK  110  A    between atoms: _283  and  _285
REMARK  111  A    between atoms: _285  and  _286
REMARK  112  A    between atoms: _285  and  _288
REMARK  113  A    between atoms: _288  and  _289
REMARK  114  A    between atoms: _292  and  _294
REMARK  115  A    between atoms: _294  and  _295
REMARK  116  A    between atoms: _294  and  _297
REMARK  117  A    between atoms: _297  and  _298
REMARK  118  A    between atoms: _301  and  _303
REMARK  119  A    between atoms: _303  and  _304
REMARK  120  A    between atoms: _303  and  _306
REMARK  121  A    between atoms: _306  and  _307
REMARK  122  A    between atoms: _307  and  _308
REMARK  123  A    between atoms: _313  and  _315
REMARK  124  A    between atoms: _315  and  _316
REMARK  125  A    between atoms: _315  and  _318
REMARK  126  A    between atoms: _321  and  _323
REMARK  127  A    between atoms: _323  and  _324
REMARK  128  A    between atoms: _326  and  _328
REMARK  129  A    between atoms: _328  and  _329
REMARK  130  A    between atoms: _331  and  _333
REMARK  131  A    between atoms: _333  and  _334
REMARK  132  A    between atoms: _333  and  _336
REMARK  133  A    between atoms: _336  and  _337
REMARK  134  A    between atoms: _340  and  _342
REMARK  135  A    between atoms: _342  and  _343
REMARK  136  A    between atoms: _346  and  _347
REMARK  137  A    between atoms: _352  and  _354
REMARK  138  A    between atoms: _354  and  _355
REMARK  139  A    between atoms: _354  and  _357
REMARK  140  A    between atoms: _357  and  _358
REMARK  141  A    between atoms: _358  and  _359
REMARK  142  A    between atoms: _361  and  _363
REMARK  143  A    between atoms: _363  and  _364
REMARK  144  A    between atoms: _363  and  _366
REMARK  145  A    between atoms: _366  and  _367
REMARK  146  A    between atoms: _370  and  _372
REMARK  147  A    between atoms: _372  and  _373
REMARK  148  A    between atoms: _375  and  _377
REMARK  149  A    between atoms: _377  and  _378
REMARK  150  A    between atoms: _377  and  _380
REMARK  151  A    between atoms: _380  and  _381
REMARK  152  A    between atoms: _381  and  _382
REMARK  153  A    between atoms: _387  and  _389
REMARK  154  A    between atoms: _389  and  _390
REMARK  155  A    between atoms: _389  and  _392
REMARK  156  A    between atoms: _392  and  _393
REMARK  157  A    between atoms: _398  and  _400
REMARK  158  A    between atoms: _400  and  _401
REMARK  159  A    between atoms: _400  and  _403
REMARK  160  A    between atoms: _403  and  _404
REMARK  161  A    between atoms: _409  and  _411
REMARK  162  A    between atoms: _411  and  _412
REMARK  163  A    between atoms: _411  and  _414
REMARK  164  A    between atoms: _414  and  _415
REMARK  165  A    between atoms: _420  and  _422
REMARK  166  A    between atoms: _422  and  _423
REMARK  167  A    between atoms: _422  and  _425
REMARK  168  A    between atoms: _425  and  _426
REMARK  169  A    between atoms: _432  and  _434
REMARK  170  A    between atoms: _434  and  _435
REMARK  171  A    between atoms: _438  and  _440
REMARK  172  A    between atoms: _440  and  _441
REMARK  173  A    between atoms: _444  and  _446
REMARK  174  A    between atoms: _446  and  _447
REMARK  175  A    between atoms: _446  and  _449
REMARK  176  A    between atoms: _449  and  _450
REMARK  177  A    between atoms: _460  and  _462
REMARK  178  A    between atoms: _462  and  _463
REMARK  179  A    between atoms: _462  and  _465
REMARK  180  A    between atoms: _465  and  _466
REMARK  181  A    between atoms: _466  and  _467
REMARK  182  A    between atoms: _472  and  _474
REMARK  183  A    between atoms: _474  and  _475
REMARK  184  A    between atoms: _474  and  _477
REMARK  185  A    between atoms: _477  and  _478
REMARK  186  A    between atoms: _484  and  _486
REMARK  187  A    between atoms: _486  and  _487
REMARK  188  A    between atoms: _486  and  _489
REMARK  189  A    between atoms: _489  and  _490
REMARK  190  A    between atoms: _500  and  _502
REMARK  191  A    between atoms: _502  and  _503
REMARK  192  A    between atoms: _502  and  _505
REMARK  193  A    between atoms: _505  and  _506
REMARK  194  A    between atoms: _506  and  _507
REMARK  195  A    between atoms: _512  and  _514
REMARK  196  A    between atoms: _514  and  _515
REMARK  197  A    between atoms: _514  and  _517
REMARK  198  A    between atoms: _520  and  _522
REMARK  199  A    between atoms: _522  and  _523
REMARK  200  A    between atoms: _525  and  _527
REMARK  201  A    between atoms: _527  and  _528
REMARK  202  A    between atoms: _530  and  _532
REMARK  203  A    between atoms: _532  and  _533
REMARK  204  A    between atoms: _532  and  _535
REMARK  205  A    between atoms: _535  and  _536
REMARK  206  A    between atoms: _540  and  _541
REMARK  207  A    between atoms: _546  and  _548
REMARK  208  A    between atoms: _548  and  _549
REMARK  209  A    between atoms: _548  and  _551
REMARK  210  A    between atoms: _551  and  _552
REMARK  211  A    between atoms: _552  and  _553
REMARK  212  A    between atoms: _555  and  _557
REMARK  213  A    between atoms: _557  and  _558
REMARK  214  A    between atoms: _557  and  _560
REMARK  215  A    between atoms: _560  and  _561
REMARK  216  A    between atoms: _566  and  _567
REMARK  217  A    between atoms: _569  and  _571
REMARK  218  A    between atoms: _571  and  _572
REMARK  219  A    between atoms: _571  and  _574
REMARK  220  A    between atoms: _574  and  _575
REMARK  221  A    between atoms: _575  and  _576
REMARK  222  A    between atoms: _576  and  _577
REMARK  223  A    between atoms: _586  and  _588
REMARK  224  A    between atoms: _588  and  _589
REMARK  225  A    between atoms: _588  and  _591
REMARK  226  A    between atoms: _591  and  _592
REMARK  227  A    between atoms: _597  and  _598
REMARK  228  A    between atoms: _600  and  _602
REMARK  229  A    between atoms: _602  and  _603
REMARK  230  A    between atoms: _602  and  _605
REMARK  231  A    between atoms: _605  and  _606
REMARK  232  A    between atoms: _606  and  _607
REMARK  233  A    between atoms: _610  and  _612
REMARK  234  A    between atoms: _612  and  _613
REMARK  235  A    between atoms: _612  and  _615
REMARK  236  A    between atoms: _615  and  _616
REMARK  237  A    between atoms: _616  and  _617
REMARK  238  A    between atoms: _617  and  _618
REMARK                            x       y       z     vdW  Elec       q    Type
REMARK                         _______ _______ _______ _____ _____    ______ ____
ROOT
ATOM      1  O   HOH     1      20.281  34.593  52.332  0.00  0.00    +0.000 OA
ENDROOT
TORSDOF 0
REMARK  Name = ../refined-set-2016/3gx0/3gx0_pocket.pdb
REMARK  238 active torsions:
REMARK  status: ('A' for Active; 'I' for Inactive)
REMARK    1  A    between atoms: _1  and  _3
REMARK    2  A    between atoms: _3  and  _4
REMARK    3  A    between atoms: _3  and  _6
REMARK    4  A    between atoms: _6  and  _7
REMARK    5  A    between atoms: _12  and  _13
REMARK    6  A    between atoms: _15  and  _17
REMARK    7  A    between atoms: _17  and  _18
REMARK    8  A    between atoms: _17  and  _20
REMARK    9  A    between atoms: _20  and  _21
REMARK   10  A    between atoms: _27  and  _29
REMARK   11  A    between atoms: _29  and  _30
REMARK   12  A    between atoms: _34  and  _35
REMARK   13  A    between atoms: _40  and  _42
REMARK   14  A    between atoms: _42  and  _43
REMARK   15  A    between atoms: _42  and  _45
REMARK   16  A    between atoms: _45  and  _46
REMARK   17  A    between atoms: _50  and  _51
REMARK   18  A    between atoms: _56  and  _58
REMARK   19  A    between atoms: _58  and  _59
REMARK   20  A    between atoms: _58  and  _61
REMARK   21  A    between atoms: _61  and  _62
REMARK   22  A    between atoms: _67  and  _69
REMARK   23  A    between atoms: _69  and  _70
REMARK   24  A    between atoms: _72  and  _74
REMARK   25  A    between atoms: _74  and  _75
REMARK   26  A    between atoms: _74  and  _77
REMARK   27  A    between atoms: _77  and  _78
REMARK   28  A    between atoms: _83  and  _85
REMARK   29  A    between atoms: _85  and  _86
REMARK   30  A    between atoms: _85  and  _88
REMARK   31  A    between atoms: _88  and  _89
REMARK   32  A    between atoms: _89  and  _90
REMARK   33  A    between atoms: _90  and  _91
REMARK   34  A    between atoms: _91  and  _92
REMARK   35  A    between atoms: _96  and  _98
REMARK   36  A    between atoms: _98  and  _99
REMARK   37  A    between atoms: _98  and  _101
REMARK   38  A    between atoms: _101  and  _102
REMARK   39  A    between atoms: _105  and  _107
REMARK   40  A    between atoms: _107  and  _108
REMARK   41  A    between atoms: _107  and  _110
REMARK   42  A    between atoms: _113  and  _115
REMARK   43  A    between atoms: _115  and  _116
REMARK   44  A    between atoms: _115  and  _118
REMARK   45  A    between atoms: _118  and  _119
REMARK   46  A    between atoms: _122  and  _124
REMARK   47  A    between atoms: _124  and  _125
REMARK   48  A    between atoms: _124  and  _127
REMARK   49  A    between atoms: _127  and  _128
REMARK   50  A    between atoms: _131  and  _133
REMARK   51  A    between atoms: _133  and  _134
REMARK   52  A    between atoms: _136  and  _138
REMARK   53  A    between atoms: _138  and  _139
REMARK   54  A    between atoms: _141  and  _143
REMARK   55  A    between atoms: _143  and  _144
REMARK   56  A    between atoms: _143  and  _146
REMARK   57  A    between atoms: _146  and  _147
REMARK   58  A    between atoms: _147  and  _148
REMARK   59  A    between atoms: _153  and  _155
REMARK   60  A    between atoms: _155  and  _156
REMARK   61  A    between atoms: _155  and  _158
REMARK   62  A    between atoms: _158  and  _159
REMARK   63  A    between atoms: _165  and  _167
REMARK   64  A    between atoms: _167  and  _168
REMARK   65  A    between atoms: _167  and  _170
REMARK   66  A    between atoms: _170  and  _171
REMARK   67  A    between atoms: _177  and  _179
REMARK   68  A    between atoms: _179  and  _180
REMARK   69  A    between atoms: _179  and  _182
REMARK   70  A    between atoms: _182  and  _183
REMARK   71  A    between atoms: _185  and  _187
REMARK   72  A    between atoms: _187  and  _188
REMARK   73  A    between atoms: _187  and  _190
REMARK   74  A    between atoms: _190  and  _191
REMARK   75  A    between atoms: _196  and  _198
REMARK   76  A    between atoms: _198  and  _199
REMARK   77  A    between atoms: _198  and  _201
REMARK   78  A    between atoms: _201  and  _202
REMARK   79  A    between atoms: _207  and  _209
REMARK   80  A    between atoms: _209  and  _210
REMARK   81  A    between atoms: _209  and  _212
REMARK   82  A    between atoms: _212  and  _213
REMARK   83  A    between atoms: _213  and  _214
REMARK   84  A    between atoms: _214  and  _215
REMARK   85  A    between atoms: _215  and  _216
REMARK   86  A    between atoms: _220  and  _222
REMARK   87  A    between atoms: _222  and  _223
REMARK   88  A    between atoms: _222  and  _225
REMARK   89  A    between atoms: _225  and  _226
REMARK   90  A    between atoms: _230  and  _231
REMARK   91  A    between atoms: _236  and  _238
REMARK   92  A    between atoms: _238  and  _239
REMARK   93  A    between atoms: _242  and  _244
REMARK   94  A    between atoms: _244  and  _245
REMARK   95  A    between atoms: _244  and  _247
REMARK   96  A    between atoms: _247  and  _248
REMARK   97  A    between atoms: _254  and  _256
REMARK   98  A    between atoms: _256  and  _257
REMARK   99  A    between atoms: _256  and  _259
REMARK  100  A    between atoms: _259  and  _260
REMARK  101  A    between atoms: _260  and  _261
REMARK  102  A    between atoms: _264  and  _266
REMARK  103  A    between atoms: _266  and  _267
REMARK  104  A    between atoms: _266  and  _269
REMARK  105  A    between atoms: _269  and  _270
REMARK  106  A    between atoms: _272  and  _274
REMARK  107  A    between atoms: _274  and  _275
REMARK  108  A    between atoms: _277  and  _279
REMARK  109  A    between atoms: _279  and  _280
REMARK  110  A    between atoms: _283  and  _285
REMARK  111  A    between atoms: _285  and  _286
REMARK  112  A    between atoms: _285  and  _288
REMARK  113  A    between atoms: _288  and  _289
REMARK  114  A    between atoms: _292  and  _294
REMARK  115  A    between atoms: _294  and  _295
REMARK  116  A    between atoms: _294  and  _297
REMARK  117  A    between atoms: _297  and  _298
REMARK  118  A    between atoms: _301  and  _303
REMARK  119  A    between atoms: _303  and  _304
REMARK  120  A    between atoms: _303  and  _306
REMARK  121  A    between atoms: _306  and  _307
REMARK  122  A    between atoms: _307  and  _308
REMARK  123  A    between atoms: _313  and  _315
REMARK  124  A    between atoms: _315  and  _316
REMARK  125  A    between atoms: _315  and  _318
REMARK  126  A    between atoms: _321  and  _323
REMARK  127  A    between atoms: _323  and  _324
REMARK  128  A    between atoms: _326  and  _328
REMARK  129  A    between atoms: _328  and  _329
REMARK  130  A    between atoms: _331  and  _333
REMARK  131  A    between atoms: _333  and  _334
REMARK  132  A    between atoms: _333  and  _336
REMARK  133  A    between atoms: _336  and  _337
REMARK  134  A    between atoms: _340  and  _342
REMARK  135  A    between atoms: _342  and  _343
REMARK  136  A    between atoms: _346  and  _347
REMARK  137  A    between atoms: _352  and  _354
REMARK  138  A    between atoms: _354  and  _355
REMARK  139  A    between atoms: _354  and  _357
REMARK  140  A    between atoms: _357  and  _358
REMARK  141  A    between atoms: _358  and  _359
REMARK  142  A    between atoms: _361  and  _363
REMARK  143  A    between atoms: _363  and  _364
REMARK  144  A    between atoms: _363  and  _366
REMARK  145  A    between atoms: _366  and  _367
REMARK  146  A    between atoms: _370  and  _372
REMARK  147  A    between atoms: _372  and  _373
REMARK  148  A    between atoms: _375  and  _377
REMARK  149  A    between atoms: _377  and  _378
REMARK  150  A    between atoms: _377  and  _380
REMARK  151  A    between atoms: _380  and  _381
REMARK  152  A    between atoms: _381  and  _382
REMARK  153  A    between atoms: _387  and  _389
REMARK  154  A    between atoms: _389  and  _390
REMARK  155  A    between atoms: _389  and  _392
REMARK  156  A    between atoms: _392  and  _393
REMARK  157  A    between atoms: _398  and  _400
REMARK  158  A    between atoms: _400  and  _401
REMARK  159  A    between atoms: _400  and  _403
REMARK  160  A    between atoms: _403  and  _404
REMARK  161  A    between atoms: _409  and  _411
REMARK  162  A    between atoms: _411  and  _412
REMARK  163  A    between atoms: _411  and  _414
REMARK  164  A    between atoms: _414  and  _415
REMARK  165  A    between atoms: _420  and  _422
REMARK  166  A    between atoms: _422  and  _423
REMARK  167  A    between atoms: _422  and  _425
REMARK  168  A    between atoms: _425  and  _426
REMARK  169  A    between atoms: _432  and  _434
REMARK  170  A    between atoms: _434  and  _435
REMARK  171  A    between atoms: _438  and  _440
REMARK  172  A    between atoms: _440  and  _441
REMARK  173  A    between atoms: _444  and  _446
REMARK  174  A    between atoms: _446  and  _447
REMARK  175  A    between atoms: _446  and  _449
REMARK  176  A    between atoms: _449  and  _450
REMARK  177  A    between atoms: _460  and  _462
REMARK  178  A    between atoms: _462  and  _463
REMARK  179  A    between atoms: _462  and  _465
REMARK  180  A    between atoms: _465  and  _466
REMARK  181  A    between atoms: _466  and  _467
REMARK  182  A    between atoms: _472  and  _474
REMARK  183  A    between atoms: _474  and  _475
REMARK  184  A    between atoms: _474  and  _477
REMARK  185  A    between atoms: _477  and  _478
REMARK  186  A    between atoms: _484  and  _486
REMARK  187  A    between atoms: _486  and  _487
REMARK  188  A    between atoms: _486  and  _489
REMARK  189  A    between atoms: _489  and  _490
REMARK  190  A    between atoms: _500  and  _502
REMARK  191  A    between atoms: _502  and  _503
REMARK  192  A    between atoms: _502  and  _505
REMARK  193  A    between atoms: _505  and  _506
REMARK  194  A    between atoms: _506  and  _507
REMARK  195  A    between atoms: _512  and  _514
REMARK  196  A    between atoms: _514  and  _515
REMARK  197  A    between atoms: _514  and  _517
REMARK  198  A    between atoms: _520  and  _522
REMARK  199  A    between atoms: _522  and  _523
REMARK  200  A    between atoms: _525  and  _527
REMARK  201  A    between atoms: _527  and  _528
REMARK  202  A    between atoms: _530  and  _532
REMARK  203  A    between atoms: _532  and  _533
REMARK  204  A    between atoms: _532  and  _535
REMARK  205  A    between atoms: _535  and  _536
REMARK  206  A    between atoms: _540  and  _541
REMARK  207  A    between atoms: _546  and  _548
REMARK  208  A    between atoms: _548  and  _549
REMARK  209  A    between atoms: _548  and  _551
REMARK  210  A    between atoms: _551  and  _552
REMARK  211  A    between atoms: _552  and  _553
REMARK  212  A    between atoms: _555  and  _557
REMARK  213  A    between atoms: _557  and  _558
REMARK  214  A    between atoms: _557  and  _560
REMARK  215  A    between atoms: _560  and  _561
REMARK  216  A    between atoms: _566  and  _567
REMARK  217  A    between atoms: _569  and  _571
REMARK  218  A    between atoms: _571  and  _572
REMARK  219  A    between atoms: _571  and  _574
REMARK  220  A    between atoms: _574  and  _575
REMARK  221  A    between atoms: _575  and  _576
REMARK  222  A    between atoms: _576  and  _577
REMARK  223  A    between atoms: _586  and  _588
REMARK  224  A    between atoms: _588  and  _589
REMARK  225  A    between atoms: _588  and  _591
REMARK  226  A    between atoms: _591  and  _592
REMARK  227  A    between atoms: _597  and  _598
REMARK  228  A    between atoms: _600  and  _602
REMARK  229  A    between atoms: _602  and  _603
REMARK  230  A    between atoms: _602  and  _605
REMARK  231  A    between atoms: _605  and  _606
REMARK  232  A    between atoms: _606  and  _607
REMARK  233  A    between atoms: _610  and  _612
REMARK  234  A    between atoms: _612  and  _613
REMARK  235  A    between atoms: _612  and  _615
REMARK  236  A    between atoms: _615  and  _616
REMARK  237  A    between atoms: _616  and  _617
REMARK  238  A    between atoms: _617  and  _618
REMARK                            x       y       z     vdW  Elec       q    Type
REMARK                         _______ _______ _______ _____ _____    ______ ____
ROOT
ATOM      1  O   HOH     1      27.608  30.998  50.177  0.00  0.00    +0.000 OA
ENDROOT
TORSDOF 0
REMARK  Name = ../refined-set-2016/3gx0/3gx0_pocket.pdb
REMARK  238 active torsions:
REMARK  status: ('A' for Active; 'I' for Inactive)
REMARK    1  A    between atoms: _1  and  _3
REMARK    2  A    between atoms: _3  and  _4
REMARK    3  A    between atoms: _3  and  _6
REMARK    4  A    between atoms: _6  and  _7
REMARK    5  A    between atoms: _12  and  _13
REMARK    6  A    between atoms: _15  and  _17
REMARK    7  A    between atoms: _17  and  _18
REMARK    8  A    between atoms: _17  and  _20
REMARK    9  A    between atoms: _20  and  _21
REMARK   10  A    between atoms: _27  and  _29
REMARK   11  A    between atoms: _29  and  _30
REMARK   12  A    between atoms: _34  and  _35
REMARK   13  A    between atoms: _40  and  _42
REMARK   14  A    between atoms: _42  and  _43
REMARK   15  A    between atoms: _42  and  _45
REMARK   16  A    between atoms: _45  and  _46
REMARK   17  A    between atoms: _50  and  _51
REMARK   18  A    between atoms: _56  and  _58
REMARK   19  A    between atoms: _58  and  _59
REMARK   20  A    between atoms: _58  and  _61
REMARK   21  A    between atoms: _61  and  _62
REMARK   22  A    between atoms: _67  and  _69
REMARK   23  A    between atoms: _69  and  _70
REMARK   24  A    between atoms: _72  and  _74
REMARK   25  A    between atoms: _74  and  _75
REMARK   26  A    between atoms: _74  and  _77
REMARK   27  A    between atoms: _77  and  _78
REMARK   28  A    between atoms: _83  and  _85
REMARK   29  A    between atoms: _85  and  _86
REMARK   30  A    between atoms: _85  and  _88
REMARK   31  A    between atoms: _88  and  _89
REMARK   32  A    between atoms: _89  and  _90
REMARK   33  A    between atoms: _90  and  _91
REMARK   34  A    between atoms: _91  and  _92
REMARK   35  A    between atoms: _96  and  _98
REMARK   36  A    between atoms: _98  and  _99
REMARK   37  A    between atoms: _98  and  _101
REMARK   38  A    between atoms: _101  and  _102
REMARK   39  A    between atoms: _105  and  _107
REMARK   40  A    between atoms: _107  and  _108
REMARK   41  A    between atoms: _107  and  _110
REMARK   42  A    between atoms: _113  and  _115
REMARK   43  A    between atoms: _115  and  _116
REMARK   44  A    between atoms: _115  and  _118
REMARK   45  A    between atoms: _118  and  _119
REMARK   46  A    between atoms: _122  and  _124
REMARK   47  A    between atoms: _124  and  _125
REMARK   48  A    between atoms: _124  and  _127
REMARK   49  A    between atoms: _127  and  _128
REMARK   50  A    between atoms: _131  and  _133
REMARK   51  A    between atoms: _133  and  _134
REMARK   52  A    between atoms: _136  and  _138
REMARK   53  A    between atoms: _138  and  _139
REMARK   54  A    between atoms: _141  and  _143
REMARK   55  A    between atoms: _143  and  _144
REMARK   56  A    between atoms: _143  and  _146
REMARK   57  A    between atoms: _146  and  _147
REMARK   58  A    between atoms: _147  and  _148
REMARK   59  A    between atoms: _153  and  _155
REMARK   60  A    between atoms: _155  and  _156
REMARK   61  A    between atoms: _155  and  _158
REMARK   62  A    between atoms: _158  and  _159
REMARK   63  A    between atoms: _165  and  _167
REMARK   64  A    between atoms: _167  and  _168
REMARK   65  A    between atoms: _167  and  _170
REMARK   66  A    between atoms: _170  and  _171
REMARK   67  A    between atoms: _177  and  _179
REMARK   68  A    between atoms: _179  and  _180
REMARK   69  A    between atoms: _179  and  _182
REMARK   70  A    between atoms: _182  and  _183
REMARK   71  A    between atoms: _185  and  _187
REMARK   72  A    between atoms: _187  and  _188
REMARK   73  A    between atoms: _187  and  _190
REMARK   74  A    between atoms: _190  and  _191
REMARK   75  A    between atoms: _196  and  _198
REMARK   76  A    between atoms: _198  and  _199
REMARK   77  A    between atoms: _198  and  _201
REMARK   78  A    between atoms: _201  and  _202
REMARK   79  A    between atoms: _207  and  _209
REMARK   80  A    between atoms: _209  and  _210
REMARK   81  A    between atoms: _209  and  _212
REMARK   82  A    between atoms: _212  and  _213
REMARK   83  A    between atoms: _213  and  _214
REMARK   84  A    between atoms: _214  and  _215
REMARK   85  A    between atoms: _215  and  _216
REMARK   86  A    between atoms: _220  and  _222
REMARK   87  A    between atoms: _222  and  _223
REMARK   88  A    between atoms: _222  and  _225
REMARK   89  A    between atoms: _225  and  _226
REMARK   90  A    between atoms: _230  and  _231
REMARK   91  A    between atoms: _236  and  _238
REMARK   92  A    between atoms: _238  and  _239
REMARK   93  A    between atoms: _242  and  _244
REMARK   94  A    between atoms: _244  and  _245
REMARK   95  A    between atoms: _244  and  _247
REMARK   96  A    between atoms: _247  and  _248
REMARK   97  A    between atoms: _254  and  _256
REMARK   98  A    between atoms: _256  and  _257
REMARK   99  A    between atoms: _256  and  _259
REMARK  100  A    between atoms: _259  and  _260
REMARK  101  A    between atoms: _260  and  _261
REMARK  102  A    between atoms: _264  and  _266
REMARK  103  A    between atoms: _266  and  _267
REMARK  104  A    between atoms: _266  and  _269
REMARK  105  A    between atoms: _269  and  _270
REMARK  106  A    between atoms: _272  and  _274
REMARK  107  A    between atoms: _274  and  _275
REMARK  108  A    between atoms: _277  and  _279
REMARK  109  A    between atoms: _279  and  _280
REMARK  110  A    between atoms: _283  and  _285
REMARK  111  A    between atoms: _285  and  _286
REMARK  112  A    between atoms: _285  and  _288
REMARK  113  A    between atoms: _288  and  _289
REMARK  114  A    between atoms: _292  and  _294
REMARK  115  A    between atoms: _294  and  _295
REMARK  116  A    between atoms: _294  and  _297
REMARK  117  A    between atoms: _297  and  _298
REMARK  118  A    between atoms: _301  and  _303
REMARK  119  A    between atoms: _303  and  _304
REMARK  120  A    between atoms: _303  and  _306
REMARK  121  A    between atoms: _306  and  _307
REMARK  122  A    between atoms: _307  and  _308
REMARK  123  A    between atoms: _313  and  _315
REMARK  124  A    between atoms: _315  and  _316
REMARK  125  A    between atoms: _315  and  _318
REMARK  126  A    between atoms: _321  and  _323
REMARK  127  A    between atoms: _323  and  _324
REMARK  128  A    between atoms: _326  and  _328
REMARK  129  A    between atoms: _328  and  _329
REMARK  130  A    between atoms: _331  and  _333
REMARK  131  A    between atoms: _333  and  _334
REMARK  132  A    between atoms: _333  and  _336
REMARK  133  A    between atoms: _336  and  _337
REMARK  134  A    between atoms: _340  and  _342
REMARK  135  A    between atoms: _342  and  _343
REMARK  136  A    between atoms: _346  and  _347
REMARK  137  A    between atoms: _352  and  _354
REMARK  138  A    between atoms: _354  and  _355
REMARK  139  A    between atoms: _354  and  _357
REMARK  140  A    between atoms: _357  and  _358
REMARK  141  A    between atoms: _358  and  _359
REMARK  142  A    between atoms: _361  and  _363
REMARK  143  A    between atoms: _363  and  _364
REMARK  144  A    between atoms: _363  and  _366
REMARK  145  A    between atoms: _366  and  _367
REMARK  146  A    between atoms: _370  and  _372
REMARK  147  A    between atoms: _372  and  _373
REMARK  148  A    between atoms: _375  and  _377
REMARK  149  A    between atoms: _377  and  _378
REMARK  150  A    between atoms: _377  and  _380
REMARK  151  A    between atoms: _380  and  _381
REMARK  152  A    between atoms: _381  and  _382
REMARK  153  A    between atoms: _387  and  _389
REMARK  154  A    between atoms: _389  and  _390
REMARK  155  A    between atoms: _389  and  _392
REMARK  156  A    between atoms: _392  and  _393
REMARK  157  A    between atoms: _398  and  _400
REMARK  158  A    between atoms: _400  and  _401
REMARK  159  A    between atoms: _400  and  _403
REMARK  160  A    between atoms: _403  and  _404
REMARK  161  A    between atoms: _409  and  _411
REMARK  162  A    between atoms: _411  and  _412
REMARK  163  A    between atoms: _411  and  _414
REMARK  164  A    between atoms: _414  and  _415
REMARK  165  A    between atoms: _420  and  _422
REMARK  166  A    between atoms: _422  and  _423
REMARK  167  A    between atoms: _422  and  _425
REMARK  168  A    between atoms: _425  and  _426
REMARK  169  A    between atoms: _432  and  _434
REMARK  170  A    between atoms: _434  and  _435
REMARK  171  A    between atoms: _438  and  _440
REMARK  172  A    between atoms: _440  and  _441
REMARK  173  A    between atoms: _444  and  _446
REMARK  174  A    between atoms: _446  and  _447
REMARK  175  A    between atoms: _446  and  _449
REMARK  176  A    between atoms: _449  and  _450
REMARK  177  A    between atoms: _460  and  _462
REMARK  178  A    between atoms: _462  and  _463
REMARK  179  A    between atoms: _462  and  _465
REMARK  180  A    between atoms: _465  and  _466
REMARK  181  A    between atoms: _466  and  _467
REMARK  182  A    between atoms: _472  and  _474
REMARK  183  A    between atoms: _474  and  _475
REMARK  184  A    between atoms: _474  and  _477
REMARK  185  A    between atoms: _477  and  _478
REMARK  186  A    between atoms: _484  and  _486
REMARK  187  A    between atoms: _486  and  _487
REMARK  188  A    between atoms: _486  and  _489
REMARK  189  A    between atoms: _489  and  _490
REMARK  190  A    between atoms: _500  and  _502
REMARK  191  A    between atoms: _502  and  _503
REMARK  192  A    between atoms: _502  and  _505
REMARK  193  A    between atoms: _505  and  _506
REMARK  194  A    between atoms: _506  and  _507
REMARK  195  A    between atoms: _512  and  _514
REMARK  196  A    between atoms: _514  and  _515
REMARK  197  A    between atoms: _514  and  _517
REMARK  198  A    between atoms: _520  and  _522
REMARK  199  A    between atoms: _522  and  _523
REMARK  200  A    between atoms: _525  and  _527
REMARK  201  A    between atoms: _527  and  _528
REMARK  202  A    between atoms: _530  and  _532
REMARK  203  A    between atoms: _532  and  _533
REMARK  204  A    between atoms: _532  and  _535
REMARK  205  A    between atoms: _535  and  _536
REMARK  206  A    between atoms: _540  and  _541
REMARK  207  A    between atoms: _546  and  _548
REMARK  208  A    between atoms: _548  and  _549
REMARK  209  A    between atoms: _548  and  _551
REMARK  210  A    between atoms: _551  and  _552
REMARK  211  A    between atoms: _552  and  _553
REMARK  212  A    between atoms: _555  and  _557
REMARK  213  A    between atoms: _557  and  _558
REMARK  214  A    between atoms: _557  and  _560
REMARK  215  A    between atoms: _560  and  _561
REMARK  216  A    between atoms: _566  and  _567
REMARK  217  A    between atoms: _569  and  _571
REMARK  218  A    between atoms: _571  and  _572
REMARK  219  A    between atoms: _571  and  _574
REMARK  220  A    between atoms: _574  and  _575
REMARK  221  A    between atoms: _575  and  _576
REMARK  222  A    between atoms: _576  and  _577
REMARK  223  A    between atoms: _586  and  _588
REMARK  224  A    between atoms: _588  and  _589
REMARK  225  A    between atoms: _588  and  _591
REMARK  226  A    between atoms: _591  and  _592
REMARK  227  A    between atoms: _597  and  _598
REMARK  228  A    between atoms: _600  and  _602
REMARK  229  A    between atoms: _602  and  _603
REMARK  230  A    between atoms: _602  and  _605
REMARK  231  A    between atoms: _605  and  _606
REMARK  232  A    between atoms: _606  and  _607
REMARK  233  A    between atoms: _610  and  _612
REMARK  234  A    between atoms: _612  and  _613
REMARK  235  A    between atoms: _612  and  _615
REMARK  236  A    between atoms: _615  and  _616
REMARK  237  A    between atoms: _616  and  _617
REMARK  238  A    between atoms: _617  and  _618
REMARK                            x       y       z     vdW  Elec       q    Type
REMARK                         _______ _______ _______ _____ _____    ______ ____
ROOT
ATOM      1  O   HOH     1      27.468  31.308  52.797  0.00  0.00    +0.000 OA
ENDROOT
TORSDOF 0
REMARK  Name = ../refined-set-2016/3gx0/3gx0_pocket.pdb
REMARK  238 active torsions:
REMARK  status: ('A' for Active; 'I' for Inactive)
REMARK    1  A    between atoms: _1  and  _3
REMARK    2  A    between atoms: _3  and  _4
REMARK    3  A    between atoms: _3  and  _6
REMARK    4  A    between atoms: _6  and  _7
REMARK    5  A    between atoms: _12  and  _13
REMARK    6  A    between atoms: _15  and  _17
REMARK    7  A    between atoms: _17  and  _18
REMARK    8  A    between atoms: _17  and  _20
REMARK    9  A    between atoms: _20  and  _21
REMARK   10  A    between atoms: _27  and  _29
REMARK   11  A    between atoms: _29  and  _30
REMARK   12  A    between atoms: _34  and  _35
REMARK   13  A    between atoms: _40  and  _42
REMARK   14  A    between atoms: _42  and  _43
REMARK   15  A    between atoms: _42  and  _45
REMARK   16  A    between atoms: _45  and  _46
REMARK   17  A    between atoms: _50  and  _51
REMARK   18  A    between atoms: _56  and  _58
REMARK   19  A    between atoms: _58  and  _59
REMARK   20  A    between atoms: _58  and  _61
REMARK   21  A    between atoms: _61  and  _62
REMARK   22  A    between atoms: _67  and  _69
REMARK   23  A    between atoms: _69  and  _70
REMARK   24  A    between atoms: _72  and  _74
REMARK   25  A    between atoms: _74  and  _75
REMARK   26  A    between atoms: _74  and  _77
REMARK   27  A    between atoms: _77  and  _78
REMARK   28  A    between atoms: _83  and  _85
REMARK   29  A    between atoms: _85  and  _86
REMARK   30  A    between atoms: _85  and  _88
REMARK   31  A    between atoms: _88  and  _89
REMARK   32  A    between atoms: _89  and  _90
REMARK   33  A    between atoms: _90  and  _91
REMARK   34  A    between atoms: _91  and  _92
REMARK   35  A    between atoms: _96  and  _98
REMARK   36  A    between atoms: _98  and  _99
REMARK   37  A    between atoms: _98  and  _101
REMARK   38  A    between atoms: _101  and  _102
REMARK   39  A    between atoms: _105  and  _107
REMARK   40  A    between atoms: _107  and  _108
REMARK   41  A    between atoms: _107  and  _110
REMARK   42  A    between atoms: _113  and  _115
REMARK   43  A    between atoms: _115  and  _116
REMARK   44  A    between atoms: _115  and  _118
REMARK   45  A    between atoms: _118  and  _119
REMARK   46  A    between atoms: _122  and  _124
REMARK   47  A    between atoms: _124  and  _125
REMARK   48  A    between atoms: _124  and  _127
REMARK   49  A    between atoms: _127  and  _128
REMARK   50  A    between atoms: _131  and  _133
REMARK   51  A    between atoms: _133  and  _134
REMARK   52  A    between atoms: _136  and  _138
REMARK   53  A    between atoms: _138  and  _139
REMARK   54  A    between atoms: _141  and  _143
REMARK   55  A    between atoms: _143  and  _144
REMARK   56  A    between atoms: _143  and  _146
REMARK   57  A    between atoms: _146  and  _147
REMARK   58  A    between atoms: _147  and  _148
REMARK   59  A    between atoms: _153  and  _155
REMARK   60  A    between atoms: _155  and  _156
REMARK   61  A    between atoms: _155  and  _158
REMARK   62  A    between atoms: _158  and  _159
REMARK   63  A    between atoms: _165  and  _167
REMARK   64  A    between atoms: _167  and  _168
REMARK   65  A    between atoms: _167  and  _170
REMARK   66  A    between atoms: _170  and  _171
REMARK   67  A    between atoms: _177  and  _179
REMARK   68  A    between atoms: _179  and  _180
REMARK   69  A    between atoms: _179  and  _182
REMARK   70  A    between atoms: _182  and  _183
REMARK   71  A    between atoms: _185  and  _187
REMARK   72  A    between atoms: _187  and  _188
REMARK   73  A    between atoms: _187  and  _190
REMARK   74  A    between atoms: _190  and  _191
REMARK   75  A    between atoms: _196  and  _198
REMARK   76  A    between atoms: _198  and  _199
REMARK   77  A    between atoms: _198  and  _201
REMARK   78  A    between atoms: _201  and  _202
REMARK   79  A    between atoms: _207  and  _209
REMARK   80  A    between atoms: _209  and  _210
REMARK   81  A    between atoms: _209  and  _212
REMARK   82  A    between atoms: _212  and  _213
REMARK   83  A    between atoms: _213  and  _214
REMARK   84  A    between atoms: _214  and  _215
REMARK   85  A    between atoms: _215  and  _216
REMARK   86  A    between atoms: _220  and  _222
REMARK   87  A    between atoms: _222  and  _223
REMARK   88  A    between atoms: _222  and  _225
REMARK   89  A    between atoms: _225  and  _226
REMARK   90  A    between atoms: _230  and  _231
REMARK   91  A    between atoms: _236  and  _238
REMARK   92  A    between atoms: _238  and  _239
REMARK   93  A    between atoms: _242  and  _244
REMARK   94  A    between atoms: _244  and  _245
REMARK   95  A    between atoms: _244  and  _247
REMARK   96  A    between atoms: _247  and  _248
REMARK   97  A    between atoms: _254  and  _256
REMARK   98  A    between atoms: _256  and  _257
REMARK   99  A    between atoms: _256  and  _259
REMARK  100  A    between atoms: _259  and  _260
REMARK  101  A    between atoms: _260  and  _261
REMARK  102  A    between atoms: _264  and  _266
REMARK  103  A    between atoms: _266  and  _267
REMARK  104  A    between atoms: _266  and  _269
REMARK  105  A    between atoms: _269  and  _270
REMARK  106  A    between atoms: _272  and  _274
REMARK  107  A    between atoms: _274  and  _275
REMARK  108  A    between atoms: _277  and  _279
REMARK  109  A    between atoms: _279  and  _280
REMARK  110  A    between atoms: _283  and  _285
REMARK  111  A    between atoms: _285  and  _286
REMARK  112  A    between atoms: _285  and  _288
REMARK  113  A    between atoms: _288  and  _289
REMARK  114  A    between atoms: _292  and  _294
REMARK  115  A    between atoms: _294  and  _295
REMARK  116  A    between atoms: _294  and  _297
REMARK  117  A    between atoms: _297  and  _298
REMARK  118  A    between atoms: _301  and  _303
REMARK  119  A    between atoms: _303  and  _304
REMARK  120  A    between atoms: _303  and  _306
REMARK  121  A    between atoms: _306  and  _307
REMARK  122  A    between atoms: _307  and  _308
REMARK  123  A    between atoms: _313  and  _315
REMARK  124  A    between atoms: _315  and  _316
REMARK  125  A    between atoms: _315  and  _318
REMARK  126  A    between atoms: _321  and  _323
REMARK  127  A    between atoms: _323  and  _324
REMARK  128  A    between atoms: _326  and  _328
REMARK  129  A    between atoms: _328  and  _329
REMARK  130  A    between atoms: _331  and  _333
REMARK  131  A    between atoms: _333  and  _334
REMARK  132  A    between atoms: _333  and  _336
REMARK  133  A    between atoms: _336  and  _337
REMARK  134  A    between atoms: _340  and  _342
REMARK  135  A    between atoms: _342  and  _343
REMARK  136  A    between atoms: _346  and  _347
REMARK  137  A    between atoms: _352  and  _354
REMARK  138  A    between atoms: _354  and  _355
REMARK  139  A    between atoms: _354  and  _357
REMARK  140  A    between atoms: _357  and  _358
REMARK  141  A    between atoms: _358  and  _359
REMARK  142  A    between atoms: _361  and  _363
REMARK  143  A    between atoms: _363  and  _364
REMARK  144  A    between atoms: _363  and  _366
REMARK  145  A    between atoms: _366  and  _367
REMARK  146  A    between atoms: _370  and  _372
REMARK  147  A    between atoms: _372  and  _373
REMARK  148  A    between atoms: _375  and  _377
REMARK  149  A    between atoms: _377  and  _378
REMARK  150  A    between atoms: _377  and  _380
REMARK  151  A    between atoms: _380  and  _381
REMARK  152  A    between atoms: _381  and  _382
REMARK  153  A    between atoms: _387  and  _389
REMARK  154  A    between atoms: _389  and  _390
REMARK  155  A    between atoms: _389  and  _392
REMARK  156  A    between atoms: _392  and  _393
REMARK  157  A    between atoms: _398  and  _400
REMARK  158  A    between atoms: _400  and  _401
REMARK  159  A    between atoms: _400  and  _403
REMARK  160  A    between atoms: _403  and  _404
REMARK  161  A    between atoms: _409  and  _411
REMARK  162  A    between atoms: _411  and  _412
REMARK  163  A    between atoms: _411  and  _414
REMARK  164  A    between atoms: _414  and  _415
REMARK  165  A    between atoms: _420  and  _422
REMARK  166  A    between atoms: _422  and  _423
REMARK  167  A    between atoms: _422  and  _425
REMARK  168  A    between atoms: _425  and  _426
REMARK  169  A    between atoms: _432  and  _434
REMARK  170  A    between atoms: _434  and  _435
REMARK  171  A    between atoms: _438  and  _440
REMARK  172  A    between atoms: _440  and  _441
REMARK  173  A    between atoms: _444  and  _446
REMARK  174  A    between atoms: _446  and  _447
REMARK  175  A    between atoms: _446  and  _449
REMARK  176  A    between atoms: _449  and  _450
REMARK  177  A    between atoms: _460  and  _462
REMARK  178  A    between atoms: _462  and  _463
REMARK  179  A    between atoms: _462  and  _465
REMARK  180  A    between atoms: _465  and  _466
REMARK  181  A    between atoms: _466  and  _467
REMARK  182  A    between atoms: _472  and  _474
REMARK  183  A    between atoms: _474  and  _475
REMARK  184  A    between atoms: _474  and  _477
REMARK  185  A    between atoms: _477  and  _478
REMARK  186  A    between atoms: _484  and  _486
REMARK  187  A    between atoms: _486  and  _487
REMARK  188  A    between atoms: _486  and  _489
REMARK  189  A    between atoms: _489  and  _490
REMARK  190  A    between atoms: _500  and  _502
REMARK  191  A    between atoms: _502  and  _503
REMARK  192  A    between atoms: _502  and  _505
REMARK  193  A    between atoms: _505  and  _506
REMARK  194  A    between atoms: _506  and  _507
REMARK  195  A    between atoms: _512  and  _514
REMARK  196  A    between atoms: _514  and  _515
REMARK  197  A    between atoms: _514  and  _517
REMARK  198  A    between atoms: _520  and  _522
REMARK  199  A    between atoms: _522  and  _523
REMARK  200  A    between atoms: _525  and  _527
REMARK  201  A    between atoms: _527  and  _528
REMARK  202  A    between atoms: _530  and  _532
REMARK  203  A    between atoms: _532  and  _533
REMARK  204  A    between atoms: _532  and  _535
REMARK  205  A    between atoms: _535  and  _536
REMARK  206  A    between atoms: _540  and  _541
REMARK  207  A    between atoms: _546  and  _548
REMARK  208  A    between atoms: _548  and  _549
REMARK  209  A    between atoms: _548  and  _551
REMARK  210  A    between atoms: _551  and  _552
REMARK  211  A    between atoms: _552  and  _553
REMARK  212  A    between atoms: _555  and  _557
REMARK  213  A    between atoms: _557  and  _558
REMARK  214  A    between atoms: _557  and  _560
REMARK  215  A    between atoms: _560  and  _561
REMARK  216  A    between atoms: _566  and  _567
REMARK  217  A    between atoms: _569  and  _571
REMARK  218  A    between atoms: _571  and  _572
REMARK  219  A    between atoms: _571  and  _574
REMARK  220  A    between atoms: _574  and  _575
REMARK  221  A    between atoms: _575  and  _576
REMARK  222  A    between atoms: _576  and  _577
REMARK  223  A    between atoms: _586  and  _588
REMARK  224  A    between atoms: _588  and  _589
REMARK  225  A    between atoms: _588  and  _591
REMARK  226  A    between atoms: _591  and  _592
REMARK  227  A    between atoms: _597  and  _598
REMARK  228  A    between atoms: _600  and  _602
REMARK  229  A    between atoms: _602  and  _603
REMARK  230  A    between atoms: _602  and  _605
REMARK  231  A    between atoms: _605  and  _606
REMARK  232  A    between atoms: _606  and  _607
REMARK  233  A    between atoms: _610  and  _612
REMARK  234  A    between atoms: _612  and  _613
REMARK  235  A    between atoms: _612  and  _615
REMARK  236  A    between atoms: _615  and  _616
REMARK  237  A    between atoms: _616  and  _617
REMARK  238  A    between atoms: _617  and  _618
REMARK                            x       y       z     vdW  Elec       q    Type
REMARK                         _______ _______ _______ _____ _____    ______ ____
ROOT
ATOM      1  O   HOH     1      21.349  35.586  54.663  0.00  0.00    +0.000 OA
ENDROOT
TORSDOF 0
REMARK  Name = ../refined-set-2016/3gx0/3gx0_pocket.pdb
REMARK  238 active torsions:
REMARK  status: ('A' for Active; 'I' for Inactive)
REMARK    1  A    between atoms: _1  and  _3
REMARK    2  A    between atoms: _3  and  _4
REMARK    3  A    between atoms: _3  and  _6
REMARK    4  A    between atoms: _6  and  _7
REMARK    5  A    between atoms: _12  and  _13
REMARK    6  A    between atoms: _15  and  _17
REMARK    7  A    between atoms: _17  and  _18
REMARK    8  A    between atoms: _17  and  _20
REMARK    9  A    between atoms: _20  and  _21
REMARK   10  A    between atoms: _27  and  _29
REMARK   11  A    between atoms: _29  and  _30
REMARK   12  A    between atoms: _34  and  _35
REMARK   13  A    between atoms: _40  and  _42
REMARK   14  A    between atoms: _42  and  _43
REMARK   15  A    between atoms: _42  and  _45
REMARK   16  A    between atoms: _45  and  _46
REMARK   17  A    between atoms: _50  and  _51
REMARK   18  A    between atoms: _56  and  _58
REMARK   19  A    between atoms: _58  and  _59
REMARK   20  A    between atoms: _58  and  _61
REMARK   21  A    between atoms: _61  and  _62
REMARK   22  A    between atoms: _67  and  _69
REMARK   23  A    between atoms: _69  and  _70
REMARK   24  A    between atoms: _72  and  _74
REMARK   25  A    between atoms: _74  and  _75
REMARK   26  A    between atoms: _74  and  _77
REMARK   27  A    between atoms: _77  and  _78
REMARK   28  A    between atoms: _83  and  _85
REMARK   29  A    between atoms: _85  and  _86
REMARK   30  A    between atoms: _85  and  _88
REMARK   31  A    between atoms: _88  and  _89
REMARK   32  A    between atoms: _89  and  _90
REMARK   33  A    between atoms: _90  and  _91
REMARK   34  A    between atoms: _91  and  _92
REMARK   35  A    between atoms: _96  and  _98
REMARK   36  A    between atoms: _98  and  _99
REMARK   37  A    between atoms: _98  and  _101
REMARK   38  A    between atoms: _101  and  _102
REMARK   39  A    between atoms: _105  and  _107
REMARK   40  A    between atoms: _107  and  _108
REMARK   41  A    between atoms: _107  and  _110
REMARK   42  A    between atoms: _113  and  _115
REMARK   43  A    between atoms: _115  and  _116
REMARK   44  A    between atoms: _115  and  _118
REMARK   45  A    between atoms: _118  and  _119
REMARK   46  A    between atoms: _122  and  _124
REMARK   47  A    between atoms: _124  and  _125
REMARK   48  A    between atoms: _124  and  _127
REMARK   49  A    between atoms: _127  and  _128
REMARK   50  A    between atoms: _131  and  _133
REMARK   51  A    between atoms: _133  and  _134
REMARK   52  A    between atoms: _136  and  _138
REMARK   53  A    between atoms: _138  and  _139
REMARK   54  A    between atoms: _141  and  _143
REMARK   55  A    between atoms: _143  and  _144
REMARK   56  A    between atoms: _143  and  _146
REMARK   57  A    between atoms: _146  and  _147
REMARK   58  A    between atoms: _147  and  _148
REMARK   59  A    between atoms: _153  and  _155
REMARK   60  A    between atoms: _155  and  _156
REMARK   61  A    between atoms: _155  and  _158
REMARK   62  A    between atoms: _158  and  _159
REMARK   63  A    between atoms: _165  and  _167
REMARK   64  A    between atoms: _167  and  _168
REMARK   65  A    between atoms: _167  and  _170
REMARK   66  A    between atoms: _170  and  _171
REMARK   67  A    between atoms: _177  and  _179
REMARK   68  A    between atoms: _179  and  _180
REMARK   69  A    between atoms: _179  and  _182
REMARK   70  A    between atoms: _182  and  _183
REMARK   71  A    between atoms: _185  and  _187
REMARK   72  A    between atoms: _187  and  _188
REMARK   73  A    between atoms: _187  and  _190
REMARK   74  A    between atoms: _190  and  _191
REMARK   75  A    between atoms: _196  and  _198
REMARK   76  A    between atoms: _198  and  _199
REMARK   77  A    between atoms: _198  and  _201
REMARK   78  A    between atoms: _201  and  _202
REMARK   79  A    between atoms: _207  and  _209
REMARK   80  A    between atoms: _209  and  _210
REMARK   81  A    between atoms: _209  and  _212
REMARK   82  A    between atoms: _212  and  _213
REMARK   83  A    between atoms: _213  and  _214
REMARK   84  A    between atoms: _214  and  _215
REMARK   85  A    between atoms: _215  and  _216
REMARK   86  A    between atoms: _220  and  _222
REMARK   87  A    between atoms: _222  and  _223
REMARK   88  A    between atoms: _222  and  _225
REMARK   89  A    between atoms: _225  and  _226
REMARK   90  A    between atoms: _230  and  _231
REMARK   91  A    between atoms: _236  and  _238
REMARK   92  A    between atoms: _238  and  _239
REMARK   93  A    between atoms: _242  and  _244
REMARK   94  A    between atoms: _244  and  _245
REMARK   95  A    between atoms: _244  and  _247
REMARK   96  A    between atoms: _247  and  _248
REMARK   97  A    between atoms: _254  and  _256
REMARK   98  A    between atoms: _256  and  _257
REMARK   99  A    between atoms: _256  and  _259
REMARK  100  A    between atoms: _259  and  _260
REMARK  101  A    between atoms: _260  and  _261
REMARK  102  A    between atoms: _264  and  _266
REMARK  103  A    between atoms: _266  and  _267
REMARK  104  A    between atoms: _266  and  _269
REMARK  105  A    between atoms: _269  and  _270
REMARK  106  A    between atoms: _272  and  _274
REMARK  107  A    between atoms: _274  and  _275
REMARK  108  A    between atoms: _277  and  _279
REMARK  109  A    between atoms: _279  and  _280
REMARK  110  A    between atoms: _283  and  _285
REMARK  111  A    between atoms: _285  and  _286
REMARK  112  A    between atoms: _285  and  _288
REMARK  113  A    between atoms: _288  and  _289
REMARK  114  A    between atoms: _292  and  _294
REMARK  115  A    between atoms: _294  and  _295
REMARK  116  A    between atoms: _294  and  _297
REMARK  117  A    between atoms: _297  and  _298
REMARK  118  A    between atoms: _301  and  _303
REMARK  119  A    between atoms: _303  and  _304
REMARK  120  A    between atoms: _303  and  _306
REMARK  121  A    between atoms: _306  and  _307
REMARK  122  A    between atoms: _307  and  _308
REMARK  123  A    between atoms: _313  and  _315
REMARK  124  A    between atoms: _315  and  _316
REMARK  125  A    between atoms: _315  and  _318
REMARK  126  A    between atoms: _321  and  _323
REMARK  127  A    between atoms: _323  and  _324
REMARK  128  A    between atoms: _326  and  _328
REMARK  129  A    between atoms: _328  and  _329
REMARK  130  A    between atoms: _331  and  _333
REMARK  131  A    between atoms: _333  and  _334
REMARK  132  A    between atoms: _333  and  _336
REMARK  133  A    between atoms: _336  and  _337
REMARK  134  A    between atoms: _340  and  _342
REMARK  135  A    between atoms: _342  and  _343
REMARK  136  A    between atoms: _346  and  _347
REMARK  137  A    between atoms: _352  and  _354
REMARK  138  A    between atoms: _354  and  _355
REMARK  139  A    between atoms: _354  and  _357
REMARK  140  A    between atoms: _357  and  _358
REMARK  141  A    between atoms: _358  and  _359
REMARK  142  A    between atoms: _361  and  _363
REMARK  143  A    between atoms: _363  and  _364
REMARK  144  A    between atoms: _363  and  _366
REMARK  145  A    between atoms: _366  and  _367
REMARK  146  A    between atoms: _370  and  _372
REMARK  147  A    between atoms: _372  and  _373
REMARK  148  A    between atoms: _375  and  _377
REMARK  149  A    between atoms: _377  and  _378
REMARK  150  A    between atoms: _377  and  _380
REMARK  151  A    between atoms: _380  and  _381
REMARK  152  A    between atoms: _381  and  _382
REMARK  153  A    between atoms: _387  and  _389
REMARK  154  A    between atoms: _389  and  _390
REMARK  155  A    between atoms: _389  and  _392
REMARK  156  A    between atoms: _392  and  _393
REMARK  157  A    between atoms: _398  and  _400
REMARK  158  A    between atoms: _400  and  _401
REMARK  159  A    between atoms: _400  and  _403
REMARK  160  A    between atoms: _403  and  _404
REMARK  161  A    between atoms: _409  and  _411
REMARK  162  A    between atoms: _411  and  _412
REMARK  163  A    between atoms: _411  and  _414
REMARK  164  A    between atoms: _414  and  _415
REMARK  165  A    between atoms: _420  and  _422
REMARK  166  A    between atoms: _422  and  _423
REMARK  167  A    between atoms: _422  and  _425
REMARK  168  A    between atoms: _425  and  _426
REMARK  169  A    between atoms: _432  and  _434
REMARK  170  A    between atoms: _434  and  _435
REMARK  171  A    between atoms: _438  and  _440
REMARK  172  A    between atoms: _440  and  _441
REMARK  173  A    between atoms: _444  and  _446
REMARK  174  A    between atoms: _446  and  _447
REMARK  175  A    between atoms: _446  and  _449
REMARK  176  A    between atoms: _449  and  _450
REMARK  177  A    between atoms: _460  and  _462
REMARK  178  A    between atoms: _462  and  _463
REMARK  179  A    between atoms: _462  and  _465
REMARK  180  A    between atoms: _465  and  _466
REMARK  181  A    between atoms: _466  and  _467
REMARK  182  A    between atoms: _472  and  _474
REMARK  183  A    between atoms: _474  and  _475
REMARK  184  A    between atoms: _474  and  _477
REMARK  185  A    between atoms: _477  and  _478
REMARK  186  A    between atoms: _484  and  _486
REMARK  187  A    between atoms: _486  and  _487
REMARK  188  A    between atoms: _486  and  _489
REMARK  189  A    between atoms: _489  and  _490
REMARK  190  A    between atoms: _500  and  _502
REMARK  191  A    between atoms: _502  and  _503
REMARK  192  A    between atoms: _502  and  _505
REMARK  193  A    between atoms: _505  and  _506
REMARK  194  A    between atoms: _506  and  _507
REMARK  195  A    between atoms: _512  and  _514
REMARK  196  A    between atoms: _514  and  _515
REMARK  197  A    between atoms: _514  and  _517
REMARK  198  A    between atoms: _520  and  _522
REMARK  199  A    between atoms: _522  and  _523
REMARK  200  A    between atoms: _525  and  _527
REMARK  201  A    between atoms: _527  and  _528
REMARK  202  A    between atoms: _530  and  _532
REMARK  203  A    between atoms: _532  and  _533
REMARK  204  A    between atoms: _532  and  _535
REMARK  205  A    between atoms: _535  and  _536
REMARK  206  A    between atoms: _540  and  _541
REMARK  207  A    between atoms: _546  and  _548
REMARK  208  A    between atoms: _548  and  _549
REMARK  209  A    between atoms: _548  and  _551
REMARK  210  A    between atoms: _551  and  _552
REMARK  211  A    between atoms: _552  and  _553
REMARK  212  A    between atoms: _555  and  _557
REMARK  213  A    between atoms: _557  and  _558
REMARK  214  A    between atoms: _557  and  _560
REMARK  215  A    between atoms: _560  and  _561
REMARK  216  A    between atoms: _566  and  _567
REMARK  217  A    between atoms: _569  and  _571
REMARK  218  A    between atoms: _571  and  _572
REMARK  219  A    between atoms: _571  and  _574
REMARK  220  A    between atoms: _574  and  _575
REMARK  221  A    between atoms: _575  and  _576
REMARK  222  A    between atoms: _576  and  _577
REMARK  223  A    between atoms: _586  and  _588
REMARK  224  A    between atoms: _588  and  _589
REMARK  225  A    between atoms: _588  and  _591
REMARK  226  A    between atoms: _591  and  _592
REMARK  227  A    between atoms: _597  and  _598
REMARK  228  A    between atoms: _600  and  _602
REMARK  229  A    between atoms: _602  and  _603
REMARK  230  A    between atoms: _602  and  _605
REMARK  231  A    between atoms: _605  and  _606
REMARK  232  A    between atoms: _606  and  _607
REMARK  233  A    between atoms: _610  and  _612
REMARK  234  A    between atoms: _612  and  _613
REMARK  235  A    between atoms: _612  and  _615
REMARK  236  A    between atoms: _615  and  _616
REMARK  237  A    between atoms: _616  and  _617
REMARK  238  A    between atoms: _617  and  _618
REMARK                            x       y       z     vdW  Elec       q    Type
REMARK                         _______ _______ _______ _____ _____    ______ ____
ROOT
ATOM      1  O   HOH     1      25.448  36.395  57.313  0.00  0.00    +0.000 OA
ENDROOT
TORSDOF 0
REMARK  Name = ../refined-set-2016/3gx0/3gx0_pocket.pdb
REMARK  238 active torsions:
REMARK  status: ('A' for Active; 'I' for Inactive)
REMARK    1  A    between atoms: _1  and  _3
REMARK    2  A    between atoms: _3  and  _4
REMARK    3  A    between atoms: _3  and  _6
REMARK    4  A    between atoms: _6  and  _7
REMARK    5  A    between atoms: _12  and  _13
REMARK    6  A    between atoms: _15  and  _17
REMARK    7  A    between atoms: _17  and  _18
REMARK    8  A    between atoms: _17  and  _20
REMARK    9  A    between atoms: _20  and  _21
REMARK   10  A    between atoms: _27  and  _29
REMARK   11  A    between atoms: _29  and  _30
REMARK   12  A    between atoms: _34  and  _35
REMARK   13  A    between atoms: _40  and  _42
REMARK   14  A    between atoms: _42  and  _43
REMARK   15  A    between atoms: _42  and  _45
REMARK   16  A    between atoms: _45  and  _46
REMARK   17  A    between atoms: _50  and  _51
REMARK   18  A    between atoms: _56  and  _58
REMARK   19  A    between atoms: _58  and  _59
REMARK   20  A    between atoms: _58  and  _61
REMARK   21  A    between atoms: _61  and  _62
REMARK   22  A    between atoms: _67  and  _69
REMARK   23  A    between atoms: _69  and  _70
REMARK   24  A    between atoms: _72  and  _74
REMARK   25  A    between atoms: _74  and  _75
REMARK   26  A    between atoms: _74  and  _77
REMARK   27  A    between atoms: _77  and  _78
REMARK   28  A    between atoms: _83  and  _85
REMARK   29  A    between atoms: _85  and  _86
REMARK   30  A    between atoms: _85  and  _88
REMARK   31  A    between atoms: _88  and  _89
REMARK   32  A    between atoms: _89  and  _90
REMARK   33  A    between atoms: _90  and  _91
REMARK   34  A    between atoms: _91  and  _92
REMARK   35  A    between atoms: _96  and  _98
REMARK   36  A    between atoms: _98  and  _99
REMARK   37  A    between atoms: _98  and  _101
REMARK   38  A    between atoms: _101  and  _102
REMARK   39  A    between atoms: _105  and  _107
REMARK   40  A    between atoms: _107  and  _108
REMARK   41  A    between atoms: _107  and  _110
REMARK   42  A    between atoms: _113  and  _115
REMARK   43  A    between atoms: _115  and  _116
REMARK   44  A    between atoms: _115  and  _118
REMARK   45  A    between atoms: _118  and  _119
REMARK   46  A    between atoms: _122  and  _124
REMARK   47  A    between atoms: _124  and  _125
REMARK   48  A    between atoms: _124  and  _127
REMARK   49  A    between atoms: _127  and  _128
REMARK   50  A    between atoms: _131  and  _133
REMARK   51  A    between atoms: _133  and  _134
REMARK   52  A    between atoms: _136  and  _138
REMARK   53  A    between atoms: _138  and  _139
REMARK   54  A    between atoms: _141  and  _143
REMARK   55  A    between atoms: _143  and  _144
REMARK   56  A    between atoms: _143  and  _146
REMARK   57  A    between atoms: _146  and  _147
REMARK   58  A    between atoms: _147  and  _148
REMARK   59  A    between atoms: _153  and  _155
REMARK   60  A    between atoms: _155  and  _156
REMARK   61  A    between atoms: _155  and  _158
REMARK   62  A    between atoms: _158  and  _159
REMARK   63  A    between atoms: _165  and  _167
REMARK   64  A    between atoms: _167  and  _168
REMARK   65  A    between atoms: _167  and  _170
REMARK   66  A    between atoms: _170  and  _171
REMARK   67  A    between atoms: _177  and  _179
REMARK   68  A    between atoms: _179  and  _180
REMARK   69  A    between atoms: _179  and  _182
REMARK   70  A    between atoms: _182  and  _183
REMARK   71  A    between atoms: _185  and  _187
REMARK   72  A    between atoms: _187  and  _188
REMARK   73  A    between atoms: _187  and  _190
REMARK   74  A    between atoms: _190  and  _191
REMARK   75  A    between atoms: _196  and  _198
REMARK   76  A    between atoms: _198  and  _199
REMARK   77  A    between atoms: _198  and  _201
REMARK   78  A    between atoms: _201  and  _202
REMARK   79  A    between atoms: _207  and  _209
REMARK   80  A    between atoms: _209  and  _210
REMARK   81  A    between atoms: _209  and  _212
REMARK   82  A    between atoms: _212  and  _213
REMARK   83  A    between atoms: _213  and  _214
REMARK   84  A    between atoms: _214  and  _215
REMARK   85  A    between atoms: _215  and  _216
REMARK   86  A    between atoms: _220  and  _222
REMARK   87  A    between atoms: _222  and  _223
REMARK   88  A    between atoms: _222  and  _225
REMARK   89  A    between atoms: _225  and  _226
REMARK   90  A    between atoms: _230  and  _231
REMARK   91  A    between atoms: _236  and  _238
REMARK   92  A    between atoms: _238  and  _239
REMARK   93  A    between atoms: _242  and  _244
REMARK   94  A    between atoms: _244  and  _245
REMARK   95  A    between atoms: _244  and  _247
REMARK   96  A    between atoms: _247  and  _248
REMARK   97  A    between atoms: _254  and  _256
REMARK   98  A    between atoms: _256  and  _257
REMARK   99  A    between atoms: _256  and  _259
REMARK  100  A    between atoms: _259  and  _260
REMARK  101  A    between atoms: _260  and  _261
REMARK  102  A    between atoms: _264  and  _266
REMARK  103  A    between atoms: _266  and  _267
REMARK  104  A    between atoms: _266  and  _269
REMARK  105  A    between atoms: _269  and  _270
REMARK  106  A    between atoms: _272  and  _274
REMARK  107  A    between atoms: _274  and  _275
REMARK  108  A    between atoms: _277  and  _279
REMARK  109  A    between atoms: _279  and  _280
REMARK  110  A    between atoms: _283  and  _285
REMARK  111  A    between atoms: _285  and  _286
REMARK  112  A    between atoms: _285  and  _288
REMARK  113  A    between atoms: _288  and  _289
REMARK  114  A    between atoms: _292  and  _294
REMARK  115  A    between atoms: _294  and  _295
REMARK  116  A    between atoms: _294  and  _297
REMARK  117  A    between atoms: _297  and  _298
REMARK  118  A    between atoms: _301  and  _303
REMARK  119  A    between atoms: _303  and  _304
REMARK  120  A    between atoms: _303  and  _306
REMARK  121  A    between atoms: _306  and  _307
REMARK  122  A    between atoms: _307  and  _308
REMARK  123  A    between atoms: _313  and  _315
REMARK  124  A    between atoms: _315  and  _316
REMARK  125  A    between atoms: _315  and  _318
REMARK  126  A    between atoms: _321  and  _323
REMARK  127  A    between atoms: _323  and  _324
REMARK  128  A    between atoms: _326  and  _328
REMARK  129  A    between atoms: _328  and  _329
REMARK  130  A    between atoms: _331  and  _333
REMARK  131  A    between atoms: _333  and  _334
REMARK  132  A    between atoms: _333  and  _336
REMARK  133  A    between atoms: _336  and  _337
REMARK  134  A    between atoms: _340  and  _342
REMARK  135  A    between atoms: _342  and  _343
REMARK  136  A    between atoms: _346  and  _347
REMARK  137  A    between atoms: _352  and  _354
REMARK  138  A    between atoms: _354  and  _355
REMARK  139  A    between atoms: _354  and  _357
REMARK  140  A    between atoms: _357  and  _358
REMARK  141  A    between atoms: _358  and  _359
REMARK  142  A    between atoms: _361  and  _363
REMARK  143  A    between atoms: _363  and  _364
REMARK  144  A    between atoms: _363  and  _366
REMARK  145  A    between atoms: _366  and  _367
REMARK  146  A    between atoms: _370  and  _372
REMARK  147  A    between atoms: _372  and  _373
REMARK  148  A    between atoms: _375  and  _377
REMARK  149  A    between atoms: _377  and  _378
REMARK  150  A    between atoms: _377  and  _380
REMARK  151  A    between atoms: _380  and  _381
REMARK  152  A    between atoms: _381  and  _382
REMARK  153  A    between atoms: _387  and  _389
REMARK  154  A    between atoms: _389  and  _390
REMARK  155  A    between atoms: _389  and  _392
REMARK  156  A    between atoms: _392  and  _393
REMARK  157  A    between atoms: _398  and  _400
REMARK  158  A    between atoms: _400  and  _401
REMARK  159  A    between atoms: _400  and  _403
REMARK  160  A    between atoms: _403  and  _404
REMARK  161  A    between atoms: _409  and  _411
REMARK  162  A    between atoms: _411  and  _412
REMARK  163  A    between atoms: _411  and  _414
REMARK  164  A    between atoms: _414  and  _415
REMARK  165  A    between atoms: _420  and  _422
REMARK  166  A    between atoms: _422  and  _423
REMARK  167  A    between atoms: _422  and  _425
REMARK  168  A    between atoms: _425  and  _426
REMARK  169  A    between atoms: _432  and  _434
REMARK  170  A    between atoms: _434  and  _435
REMARK  171  A    between atoms: _438  and  _440
REMARK  172  A    between atoms: _440  and  _441
REMARK  173  A    between atoms: _444  and  _446
REMARK  174  A    between atoms: _446  and  _447
REMARK  175  A    between atoms: _446  and  _449
REMARK  176  A    between atoms: _449  and  _450
REMARK  177  A    between atoms: _460  and  _462
REMARK  178  A    between atoms: _462  and  _463
REMARK  179  A    between atoms: _462  and  _465
REMARK  180  A    between atoms: _465  and  _466
REMARK  181  A    between atoms: _466  and  _467
REMARK  182  A    between atoms: _472  and  _474
REMARK  183  A    between atoms: _474  and  _475
REMARK  184  A    between atoms: _474  and  _477
REMARK  185  A    between atoms: _477  and  _478
REMARK  186  A    between atoms: _484  and  _486
REMARK  187  A    between atoms: _486  and  _487
REMARK  188  A    between atoms: _486  and  _489
REMARK  189  A    between atoms: _489  and  _490
REMARK  190  A    between atoms: _500  and  _502
REMARK  191  A    between atoms: _502  and  _503
REMARK  192  A    between atoms: _502  and  _505
REMARK  193  A    between atoms: _505  and  _506
REMARK  194  A    between atoms: _506  and  _507
REMARK  195  A    between atoms: _512  and  _514
REMARK  196  A    between atoms: _514  and  _515
REMARK  197  A    between atoms: _514  and  _517
REMARK  198  A    between atoms: _520  and  _522
REMARK  199  A    between atoms: _522  and  _523
REMARK  200  A    between atoms: _525  and  _527
REMARK  201  A    between atoms: _527  and  _528
REMARK  202  A    between atoms: _530  and  _532
REMARK  203  A    between atoms: _532  and  _533
REMARK  204  A    between atoms: _532  and  _535
REMARK  205  A    between atoms: _535  and  _536
REMARK  206  A    between atoms: _540  and  _541
REMARK  207  A    between atoms: _546  and  _548
REMARK  208  A    between atoms: _548  and  _549
REMARK  209  A    between atoms: _548  and  _551
REMARK  210  A    between atoms: _551  and  _552
REMARK  211  A    between atoms: _552  and  _553
REMARK  212  A    between atoms: _555  and  _557
REMARK  213  A    between atoms: _557  and  _558
REMARK  214  A    between atoms: _557  and  _560
REMARK  215  A    between atoms: _560  and  _561
REMARK  216  A    between atoms: _566  and  _567
REMARK  217  A    between atoms: _569  and  _571
REMARK  218  A    between atoms: _571  and  _572
REMARK  219  A    between atoms: _571  and  _574
REMARK  220  A    between atoms: _574  and  _575
REMARK  221  A    between atoms: _575  and  _576
REMARK  222  A    between atoms: _576  and  _577
REMARK  223  A    between atoms: _586  and  _588
REMARK  224  A    between atoms: _588  and  _589
REMARK  225  A    between atoms: _588  and  _591
REMARK  226  A    between atoms: _591  and  _592
REMARK  227  A    between atoms: _597  and  _598
REMARK  228  A    between atoms: _600  and  _602
REMARK  229  A    between atoms: _602  and  _603
REMARK  230  A    between atoms: _602  and  _605
REMARK  231  A    between atoms: _605  and  _606
REMARK  232  A    between atoms: _606  and  _607
REMARK  233  A    between atoms: _610  and  _612
REMARK  234  A    between atoms: _612  and  _613
REMARK  235  A    between atoms: _612  and  _615
REMARK  236  A    between atoms: _615  and  _616
REMARK  237  A    between atoms: _616  and  _617
REMARK  238  A    between atoms: _617  and  _618
REMARK                            x       y       z     vdW  Elec       q    Type
REMARK                         _______ _______ _______ _____ _____    ______ ____
ROOT
ATOM      1  O   HOH     1      31.938  40.074  48.283  0.00  0.00    +0.000 OA
ENDROOT
TORSDOF 0
REMARK  Name = ../refined-set-2016/3gx0/3gx0_pocket.pdb
REMARK  238 active torsions:
REMARK  status: ('A' for Active; 'I' for Inactive)
REMARK    1  A    between atoms: _1  and  _3
REMARK    2  A    between atoms: _3  and  _4
REMARK    3  A    between atoms: _3  and  _6
REMARK    4  A    between atoms: _6  and  _7
REMARK    5  A    between atoms: _12  and  _13
REMARK    6  A    between atoms: _15  and  _17
REMARK    7  A    between atoms: _17  and  _18
REMARK    8  A    between atoms: _17  and  _20
REMARK    9  A    between atoms: _20  and  _21
REMARK   10  A    between atoms: _27  and  _29
REMARK   11  A    between atoms: _29  and  _30
REMARK   12  A    between atoms: _34  and  _35
REMARK   13  A    between atoms: _40  and  _42
REMARK   14  A    between atoms: _42  and  _43
REMARK   15  A    between atoms: _42  and  _45
REMARK   16  A    between atoms: _45  and  _46
REMARK   17  A    between atoms: _50  and  _51
REMARK   18  A    between atoms: _56  and  _58
REMARK   19  A    between atoms: _58  and  _59
REMARK   20  A    between atoms: _58  and  _61
REMARK   21  A    between atoms: _61  and  _62
REMARK   22  A    between atoms: _67  and  _69
REMARK   23  A    between atoms: _69  and  _70
REMARK   24  A    between atoms: _72  and  _74
REMARK   25  A    between atoms: _74  and  _75
REMARK   26  A    between atoms: _74  and  _77
REMARK   27  A    between atoms: _77  and  _78
REMARK   28  A    between atoms: _83  and  _85
REMARK   29  A    between atoms: _85  and  _86
REMARK   30  A    between atoms: _85  and  _88
REMARK   31  A    between atoms: _88  and  _89
REMARK   32  A    between atoms: _89  and  _90
REMARK   33  A    between atoms: _90  and  _91
REMARK   34  A    between atoms: _91  and  _92
REMARK   35  A    between atoms: _96  and  _98
REMARK   36  A    between atoms: _98  and  _99
REMARK   37  A    between atoms: _98  and  _101
REMARK   38  A    between atoms: _101  and  _102
REMARK   39  A    between atoms: _105  and  _107
REMARK   40  A    between atoms: _107  and  _108
REMARK   41  A    between atoms: _107  and  _110
REMARK   42  A    between atoms: _113  and  _115
REMARK   43  A    between atoms: _115  and  _116
REMARK   44  A    between atoms: _115  and  _118
REMARK   45  A    between atoms: _118  and  _119
REMARK   46  A    between atoms: _122  and  _124
REMARK   47  A    between atoms: _124  and  _125
REMARK   48  A    between atoms: _124  and  _127
REMARK   49  A    between atoms: _127  and  _128
REMARK   50  A    between atoms: _131  and  _133
REMARK   51  A    between atoms: _133  and  _134
REMARK   52  A    between atoms: _136  and  _138
REMARK   53  A    between atoms: _138  and  _139
REMARK   54  A    between atoms: _141  and  _143
REMARK   55  A    between atoms: _143  and  _144
REMARK   56  A    between atoms: _143  and  _146
REMARK   57  A    between atoms: _146  and  _147
REMARK   58  A    between atoms: _147  and  _148
REMARK   59  A    between atoms: _153  and  _155
REMARK   60  A    between atoms: _155  and  _156
REMARK   61  A    between atoms: _155  and  _158
REMARK   62  A    between atoms: _158  and  _159
REMARK   63  A    between atoms: _165  and  _167
REMARK   64  A    between atoms: _167  and  _168
REMARK   65  A    between atoms: _167  and  _170
REMARK   66  A    between atoms: _170  and  _171
REMARK   67  A    between atoms: _177  and  _179
REMARK   68  A    between atoms: _179  and  _180
REMARK   69  A    between atoms: _179  and  _182
REMARK   70  A    between atoms: _182  and  _183
REMARK   71  A    between atoms: _185  and  _187
REMARK   72  A    between atoms: _187  and  _188
REMARK   73  A    between atoms: _187  and  _190
REMARK   74  A    between atoms: _190  and  _191
REMARK   75  A    between atoms: _196  and  _198
REMARK   76  A    between atoms: _198  and  _199
REMARK   77  A    between atoms: _198  and  _201
REMARK   78  A    between atoms: _201  and  _202
REMARK   79  A    between atoms: _207  and  _209
REMARK   80  A    between atoms: _209  and  _210
REMARK   81  A    between atoms: _209  and  _212
REMARK   82  A    between atoms: _212  and  _213
REMARK   83  A    between atoms: _213  and  _214
REMARK   84  A    between atoms: _214  and  _215
REMARK   85  A    between atoms: _215  and  _216
REMARK   86  A    between atoms: _220  and  _222
REMARK   87  A    between atoms: _222  and  _223
REMARK   88  A    between atoms: _222  and  _225
REMARK   89  A    between atoms: _225  and  _226
REMARK   90  A    between atoms: _230  and  _231
REMARK   91  A    between atoms: _236  and  _238
REMARK   92  A    between atoms: _238  and  _239
REMARK   93  A    between atoms: _242  and  _244
REMARK   94  A    between atoms: _244  and  _245
REMARK   95  A    between atoms: _244  and  _247
REMARK   96  A    between atoms: _247  and  _248
REMARK   97  A    between atoms: _254  and  _256
REMARK   98  A    between atoms: _256  and  _257
REMARK   99  A    between atoms: _256  and  _259
REMARK  100  A    between atoms: _259  and  _260
REMARK  101  A    between atoms: _260  and  _261
REMARK  102  A    between atoms: _264  and  _266
REMARK  103  A    between atoms: _266  and  _267
REMARK  104  A    between atoms: _266  and  _269
REMARK  105  A    between atoms: _269  and  _270
REMARK  106  A    between atoms: _272  and  _274
REMARK  107  A    between atoms: _274  and  _275
REMARK  108  A    between atoms: _277  and  _279
REMARK  109  A    between atoms: _279  and  _280
REMARK  110  A    between atoms: _283  and  _285
REMARK  111  A    between atoms: _285  and  _286
REMARK  112  A    between atoms: _285  and  _288
REMARK  113  A    between atoms: _288  and  _289
REMARK  114  A    between atoms: _292  and  _294
REMARK  115  A    between atoms: _294  and  _295
REMARK  116  A    between atoms: _294  and  _297
REMARK  117  A    between atoms: _297  and  _298
REMARK  118  A    between atoms: _301  and  _303
REMARK  119  A    between atoms: _303  and  _304
REMARK  120  A    between atoms: _303  and  _306
REMARK  121  A    between atoms: _306  and  _307
REMARK  122  A    between atoms: _307  and  _308
REMARK  123  A    between atoms: _313  and  _315
REMARK  124  A    between atoms: _315  and  _316
REMARK  125  A    between atoms: _315  and  _318
REMARK  126  A    between atoms: _321  and  _323
REMARK  127  A    between atoms: _323  and  _324
REMARK  128  A    between atoms: _326  and  _328
REMARK  129  A    between atoms: _328  and  _329
REMARK  130  A    between atoms: _331  and  _333
REMARK  131  A    between atoms: _333  and  _334
REMARK  132  A    between atoms: _333  and  _336
REMARK  133  A    between atoms: _336  and  _337
REMARK  134  A    between atoms: _340  and  _342
REMARK  135  A    between atoms: _342  and  _343
REMARK  136  A    between atoms: _346  and  _347
REMARK  137  A    between atoms: _352  and  _354
REMARK  138  A    between atoms: _354  and  _355
REMARK  139  A    between atoms: _354  and  _357
REMARK  140  A    between atoms: _357  and  _358
REMARK  141  A    between atoms: _358  and  _359
REMARK  142  A    between atoms: _361  and  _363
REMARK  143  A    between atoms: _363  and  _364
REMARK  144  A    between atoms: _363  and  _366
REMARK  145  A    between atoms: _366  and  _367
REMARK  146  A    between atoms: _370  and  _372
REMARK  147  A    between atoms: _372  and  _373
REMARK  148  A    between atoms: _375  and  _377
REMARK  149  A    between atoms: _377  and  _378
REMARK  150  A    between atoms: _377  and  _380
REMARK  151  A    between atoms: _380  and  _381
REMARK  152  A    between atoms: _381  and  _382
REMARK  153  A    between atoms: _387  and  _389
REMARK  154  A    between atoms: _389  and  _390
REMARK  155  A    between atoms: _389  and  _392
REMARK  156  A    between atoms: _392  and  _393
REMARK  157  A    between atoms: _398  and  _400
REMARK  158  A    between atoms: _400  and  _401
REMARK  159  A    between atoms: _400  and  _403
REMARK  160  A    between atoms: _403  and  _404
REMARK  161  A    between atoms: _409  and  _411
REMARK  162  A    between atoms: _411  and  _412
REMARK  163  A    between atoms: _411  and  _414
REMARK  164  A    between atoms: _414  and  _415
REMARK  165  A    between atoms: _420  and  _422
REMARK  166  A    between atoms: _422  and  _423
REMARK  167  A    between atoms: _422  and  _425
REMARK  168  A    between atoms: _425  and  _426
REMARK  169  A    between atoms: _432  and  _434
REMARK  170  A    between atoms: _434  and  _435
REMARK  171  A    between atoms: _438  and  _440
REMARK  172  A    between atoms: _440  and  _441
REMARK  173  A    between atoms: _444  and  _446
REMARK  174  A    between atoms: _446  and  _447
REMARK  175  A    between atoms: _446  and  _449
REMARK  176  A    between atoms: _449  and  _450
REMARK  177  A    between atoms: _460  and  _462
REMARK  178  A    between atoms: _462  and  _463
REMARK  179  A    between atoms: _462  and  _465
REMARK  180  A    between atoms: _465  and  _466
REMARK  181  A    between atoms: _466  and  _467
REMARK  182  A    between atoms: _472  and  _474
REMARK  183  A    between atoms: _474  and  _475
REMARK  184  A    between atoms: _474  and  _477
REMARK  185  A    between atoms: _477  and  _478
REMARK  186  A    between atoms: _484  and  _486
REMARK  187  A    between atoms: _486  and  _487
REMARK  188  A    between atoms: _486  and  _489
REMARK  189  A    between atoms: _489  and  _490
REMARK  190  A    between atoms: _500  and  _502
REMARK  191  A    between atoms: _502  and  _503
REMARK  192  A    between atoms: _502  and  _505
REMARK  193  A    between atoms: _505  and  _506
REMARK  194  A    between atoms: _506  and  _507
REMARK  195  A    between atoms: _512  and  _514
REMARK  196  A    between atoms: _514  and  _515
REMARK  197  A    between atoms: _514  and  _517
REMARK  198  A    between atoms: _520  and  _522
REMARK  199  A    between atoms: _522  and  _523
REMARK  200  A    between atoms: _525  and  _527
REMARK  201  A    between atoms: _527  and  _528
REMARK  202  A    between atoms: _530  and  _532
REMARK  203  A    between atoms: _532  and  _533
REMARK  204  A    between atoms: _532  and  _535
REMARK  205  A    between atoms: _535  and  _536
REMARK  206  A    between atoms: _540  and  _541
REMARK  207  A    between atoms: _546  and  _548
REMARK  208  A    between atoms: _548  and  _549
REMARK  209  A    between atoms: _548  and  _551
REMARK  210  A    between atoms: _551  and  _552
REMARK  211  A    between atoms: _552  and  _553
REMARK  212  A    between atoms: _555  and  _557
REMARK  213  A    between atoms: _557  and  _558
REMARK  214  A    between atoms: _557  and  _560
REMARK  215  A    between atoms: _560  and  _561
REMARK  216  A    between atoms: _566  and  _567
REMARK  217  A    between atoms: _569  and  _571
REMARK  218  A    between atoms: _571  and  _572
REMARK  219  A    between atoms: _571  and  _574
REMARK  220  A    between atoms: _574  and  _575
REMARK  221  A    between atoms: _575  and  _576
REMARK  222  A    between atoms: _576  and  _577
REMARK  223  A    between atoms: _586  and  _588
REMARK  224  A    between atoms: _588  and  _589
REMARK  225  A    between atoms: _588  and  _591
REMARK  226  A    between atoms: _591  and  _592
REMARK  227  A    between atoms: _597  and  _598
REMARK  228  A    between atoms: _600  and  _602
REMARK  229  A    between atoms: _602  and  _603
REMARK  230  A    between atoms: _602  and  _605
REMARK  231  A    between atoms: _605  and  _606
REMARK  232  A    between atoms: _606  and  _607
REMARK  233  A    between atoms: _610  and  _612
REMARK  234  A    between atoms: _612  and  _613
REMARK  235  A    between atoms: _612  and  _615
REMARK  236  A    between atoms: _615  and  _616
REMARK  237  A    between atoms: _616  and  _617
REMARK  238  A    between atoms: _617  and  _618
REMARK                            x       y       z     vdW  Elec       q    Type
REMARK                         _______ _______ _______ _____ _____    ______ ____
ROOT
ATOM      1  O   HOH     1      32.021  44.100  49.387  0.00  0.00    +0.000 OA
ENDROOT
TORSDOF 0
REMARK  Name = ../refined-set-2016/3gx0/3gx0_pocket.pdb
REMARK  238 active torsions:
REMARK  status: ('A' for Active; 'I' for Inactive)
REMARK    1  A    between atoms: _1  and  _3
REMARK    2  A    between atoms: _3  and  _4
REMARK    3  A    between atoms: _3  and  _6
REMARK    4  A    between atoms: _6  and  _7
REMARK    5  A    between atoms: _12  and  _13
REMARK    6  A    between atoms: _15  and  _17
REMARK    7  A    between atoms: _17  and  _18
REMARK    8  A    between atoms: _17  and  _20
REMARK    9  A    between atoms: _20  and  _21
REMARK   10  A    between atoms: _27  and  _29
REMARK   11  A    between atoms: _29  and  _30
REMARK   12  A    between atoms: _34  and  _35
REMARK   13  A    between atoms: _40  and  _42
REMARK   14  A    between atoms: _42  and  _43
REMARK   15  A    between atoms: _42  and  _45
REMARK   16  A    between atoms: _45  and  _46
REMARK   17  A    between atoms: _50  and  _51
REMARK   18  A    between atoms: _56  and  _58
REMARK   19  A    between atoms: _58  and  _59
REMARK   20  A    between atoms: _58  and  _61
REMARK   21  A    between atoms: _61  and  _62
REMARK   22  A    between atoms: _67  and  _69
REMARK   23  A    between atoms: _69  and  _70
REMARK   24  A    between atoms: _72  and  _74
REMARK   25  A    between atoms: _74  and  _75
REMARK   26  A    between atoms: _74  and  _77
REMARK   27  A    between atoms: _77  and  _78
REMARK   28  A    between atoms: _83  and  _85
REMARK   29  A    between atoms: _85  and  _86
REMARK   30  A    between atoms: _85  and  _88
REMARK   31  A    between atoms: _88  and  _89
REMARK   32  A    between atoms: _89  and  _90
REMARK   33  A    between atoms: _90  and  _91
REMARK   34  A    between atoms: _91  and  _92
REMARK   35  A    between atoms: _96  and  _98
REMARK   36  A    between atoms: _98  and  _99
REMARK   37  A    between atoms: _98  and  _101
REMARK   38  A    between atoms: _101  and  _102
REMARK   39  A    between atoms: _105  and  _107
REMARK   40  A    between atoms: _107  and  _108
REMARK   41  A    between atoms: _107  and  _110
REMARK   42  A    between atoms: _113  and  _115
REMARK   43  A    between atoms: _115  and  _116
REMARK   44  A    between atoms: _115  and  _118
REMARK   45  A    between atoms: _118  and  _119
REMARK   46  A    between atoms: _122  and  _124
REMARK   47  A    between atoms: _124  and  _125
REMARK   48  A    between atoms: _124  and  _127
REMARK   49  A    between atoms: _127  and  _128
REMARK   50  A    between atoms: _131  and  _133
REMARK   51  A    between atoms: _133  and  _134
REMARK   52  A    between atoms: _136  and  _138
REMARK   53  A    between atoms: _138  and  _139
REMARK   54  A    between atoms: _141  and  _143
REMARK   55  A    between atoms: _143  and  _144
REMARK   56  A    between atoms: _143  and  _146
REMARK   57  A    between atoms: _146  and  _147
REMARK   58  A    between atoms: _147  and  _148
REMARK   59  A    between atoms: _153  and  _155
REMARK   60  A    between atoms: _155  and  _156
REMARK   61  A    between atoms: _155  and  _158
REMARK   62  A    between atoms: _158  and  _159
REMARK   63  A    between atoms: _165  and  _167
REMARK   64  A    between atoms: _167  and  _168
REMARK   65  A    between atoms: _167  and  _170
REMARK   66  A    between atoms: _170  and  _171
REMARK   67  A    between atoms: _177  and  _179
REMARK   68  A    between atoms: _179  and  _180
REMARK   69  A    between atoms: _179  and  _182
REMARK   70  A    between atoms: _182  and  _183
REMARK   71  A    between atoms: _185  and  _187
REMARK   72  A    between atoms: _187  and  _188
REMARK   73  A    between atoms: _187  and  _190
REMARK   74  A    between atoms: _190  and  _191
REMARK   75  A    between atoms: _196  and  _198
REMARK   76  A    between atoms: _198  and  _199
REMARK   77  A    between atoms: _198  and  _201
REMARK   78  A    between atoms: _201  and  _202
REMARK   79  A    between atoms: _207  and  _209
REMARK   80  A    between atoms: _209  and  _210
REMARK   81  A    between atoms: _209  and  _212
REMARK   82  A    between atoms: _212  and  _213
REMARK   83  A    between atoms: _213  and  _214
REMARK   84  A    between atoms: _214  and  _215
REMARK   85  A    between atoms: _215  and  _216
REMARK   86  A    between atoms: _220  and  _222
REMARK   87  A    between atoms: _222  and  _223
REMARK   88  A    between atoms: _222  and  _225
REMARK   89  A    between atoms: _225  and  _226
REMARK   90  A    between atoms: _230  and  _231
REMARK   91  A    between atoms: _236  and  _238
REMARK   92  A    between atoms: _238  and  _239
REMARK   93  A    between atoms: _242  and  _244
REMARK   94  A    between atoms: _244  and  _245
REMARK   95  A    between atoms: _244  and  _247
REMARK   96  A    between atoms: _247  and  _248
REMARK   97  A    between atoms: _254  and  _256
REMARK   98  A    between atoms: _256  and  _257
REMARK   99  A    between atoms: _256  and  _259
REMARK  100  A    between atoms: _259  and  _260
REMARK  101  A    between atoms: _260  and  _261
REMARK  102  A    between atoms: _264  and  _266
REMARK  103  A    between atoms: _266  and  _267
REMARK  104  A    between atoms: _266  and  _269
REMARK  105  A    between atoms: _269  and  _270
REMARK  106  A    between atoms: _272  and  _274
REMARK  107  A    between atoms: _274  and  _275
REMARK  108  A    between atoms: _277  and  _279
REMARK  109  A    between atoms: _279  and  _280
REMARK  110  A    between atoms: _283  and  _285
REMARK  111  A    between atoms: _285  and  _286
REMARK  112  A    between atoms: _285  and  _288
REMARK  113  A    between atoms: _288  and  _289
REMARK  114  A    between atoms: _292  and  _294
REMARK  115  A    between atoms: _294  and  _295
REMARK  116  A    between atoms: _294  and  _297
REMARK  117  A    between atoms: _297  and  _298
REMARK  118  A    between atoms: _301  and  _303
REMARK  119  A    between atoms: _303  and  _304
REMARK  120  A    between atoms: _303  and  _306
REMARK  121  A    between atoms: _306  and  _307
REMARK  122  A    between atoms: _307  and  _308
REMARK  123  A    between atoms: _313  and  _315
REMARK  124  A    between atoms: _315  and  _316
REMARK  125  A    between atoms: _315  and  _318
REMARK  126  A    between atoms: _321  and  _323
REMARK  127  A    between atoms: _323  and  _324
REMARK  128  A    between atoms: _326  and  _328
REMARK  129  A    between atoms: _328  and  _329
REMARK  130  A    between atoms: _331  and  _333
REMARK  131  A    between atoms: _333  and  _334
REMARK  132  A    between atoms: _333  and  _336
REMARK  133  A    between atoms: _336  and  _337
REMARK  134  A    between atoms: _340  and  _342
REMARK  135  A    between atoms: _342  and  _343
REMARK  136  A    between atoms: _346  and  _347
REMARK  137  A    between atoms: _352  and  _354
REMARK  138  A    between atoms: _354  and  _355
REMARK  139  A    between atoms: _354  and  _357
REMARK  140  A    between atoms: _357  and  _358
REMARK  141  A    between atoms: _358  and  _359
REMARK  142  A    between atoms: _361  and  _363
REMARK  143  A    between atoms: _363  and  _364
REMARK  144  A    between atoms: _363  and  _366
REMARK  145  A    between atoms: _366  and  _367
REMARK  146  A    between atoms: _370  and  _372
REMARK  147  A    between atoms: _372  and  _373
REMARK  148  A    between atoms: _375  and  _377
REMARK  149  A    between atoms: _377  and  _378
REMARK  150  A    between atoms: _377  and  _380
REMARK  151  A    between atoms: _380  and  _381
REMARK  152  A    between atoms: _381  and  _382
REMARK  153  A    between atoms: _387  and  _389
REMARK  154  A    between atoms: _389  and  _390
REMARK  155  A    between atoms: _389  and  _392
REMARK  156  A    between atoms: _392  and  _393
REMARK  157  A    between atoms: _398  and  _400
REMARK  158  A    between atoms: _400  and  _401
REMARK  159  A    between atoms: _400  and  _403
REMARK  160  A    between atoms: _403  and  _404
REMARK  161  A    between atoms: _409  and  _411
REMARK  162  A    between atoms: _411  and  _412
REMARK  163  A    between atoms: _411  and  _414
REMARK  164  A    between atoms: _414  and  _415
REMARK  165  A    between atoms: _420  and  _422
REMARK  166  A    between atoms: _422  and  _423
REMARK  167  A    between atoms: _422  and  _425
REMARK  168  A    between atoms: _425  and  _426
REMARK  169  A    between atoms: _432  and  _434
REMARK  170  A    between atoms: _434  and  _435
REMARK  171  A    between atoms: _438  and  _440
REMARK  172  A    between atoms: _440  and  _441
REMARK  173  A    between atoms: _444  and  _446
REMARK  174  A    between atoms: _446  and  _447
REMARK  175  A    between atoms: _446  and  _449
REMARK  176  A    between atoms: _449  and  _450
REMARK  177  A    between atoms: _460  and  _462
REMARK  178  A    between atoms: _462  and  _463
REMARK  179  A    between atoms: _462  and  _465
REMARK  180  A    between atoms: _465  and  _466
REMARK  181  A    between atoms: _466  and  _467
REMARK  182  A    between atoms: _472  and  _474
REMARK  183  A    between atoms: _474  and  _475
REMARK  184  A    between atoms: _474  and  _477
REMARK  185  A    between atoms: _477  and  _478
REMARK  186  A    between atoms: _484  and  _486
REMARK  187  A    between atoms: _486  and  _487
REMARK  188  A    between atoms: _486  and  _489
REMARK  189  A    between atoms: _489  and  _490
REMARK  190  A    between atoms: _500  and  _502
REMARK  191  A    between atoms: _502  and  _503
REMARK  192  A    between atoms: _502  and  _505
REMARK  193  A    between atoms: _505  and  _506
REMARK  194  A    between atoms: _506  and  _507
REMARK  195  A    between atoms: _512  and  _514
REMARK  196  A    between atoms: _514  and  _515
REMARK  197  A    between atoms: _514  and  _517
REMARK  198  A    between atoms: _520  and  _522
REMARK  199  A    between atoms: _522  and  _523
REMARK  200  A    between atoms: _525  and  _527
REMARK  201  A    between atoms: _527  and  _528
REMARK  202  A    between atoms: _530  and  _532
REMARK  203  A    between atoms: _532  and  _533
REMARK  204  A    between atoms: _532  and  _535
REMARK  205  A    between atoms: _535  and  _536
REMARK  206  A    between atoms: _540  and  _541
REMARK  207  A    between atoms: _546  and  _548
REMARK  208  A    between atoms: _548  and  _549
REMARK  209  A    between atoms: _548  and  _551
REMARK  210  A    between atoms: _551  and  _552
REMARK  211  A    between atoms: _552  and  _553
REMARK  212  A    between atoms: _555  and  _557
REMARK  213  A    between atoms: _557  and  _558
REMARK  214  A    between atoms: _557  and  _560
REMARK  215  A    between atoms: _560  and  _561
REMARK  216  A    between atoms: _566  and  _567
REMARK  217  A    between atoms: _569  and  _571
REMARK  218  A    between atoms: _571  and  _572
REMARK  219  A    between atoms: _571  and  _574
REMARK  220  A    between atoms: _574  and  _575
REMARK  221  A    between atoms: _575  and  _576
REMARK  222  A    between atoms: _576  and  _577
REMARK  223  A    between atoms: _586  and  _588
REMARK  224  A    between atoms: _588  and  _589
REMARK  225  A    between atoms: _588  and  _591
REMARK  226  A    between atoms: _591  and  _592
REMARK  227  A    between atoms: _597  and  _598
REMARK  228  A    between atoms: _600  and  _602
REMARK  229  A    between atoms: _602  and  _603
REMARK  230  A    between atoms: _602  and  _605
REMARK  231  A    between atoms: _605  and  _606
REMARK  232  A    between atoms: _606  and  _607
REMARK  233  A    between atoms: _610  and  _612
REMARK  234  A    between atoms: _612  and  _613
REMARK  235  A    between atoms: _612  and  _615
REMARK  236  A    between atoms: _615  and  _616
REMARK  237  A    between atoms: _616  and  _617
REMARK  238  A    between atoms: _617  and  _618
REMARK                            x       y       z     vdW  Elec       q    Type
REMARK                         _______ _______ _______ _____ _____    ______ ____
ROOT
ATOM      1  O   HOH     1      27.949  36.990  57.428  0.00  0.00    +0.000 OA
ENDROOT
TORSDOF 0
REMARK  Name = ../refined-set-2016/3gx0/3gx0_pocket.pdb
REMARK  238 active torsions:
REMARK  status: ('A' for Active; 'I' for Inactive)
REMARK    1  A    between atoms: _1  and  _3
REMARK    2  A    between atoms: _3  and  _4
REMARK    3  A    between atoms: _3  and  _6
REMARK    4  A    between atoms: _6  and  _7
REMARK    5  A    between atoms: _12  and  _13
REMARK    6  A    between atoms: _15  and  _17
REMARK    7  A    between atoms: _17  and  _18
REMARK    8  A    between atoms: _17  and  _20
REMARK    9  A    between atoms: _20  and  _21
REMARK   10  A    between atoms: _27  and  _29
REMARK   11  A    between atoms: _29  and  _30
REMARK   12  A    between atoms: _34  and  _35
REMARK   13  A    between atoms: _40  and  _42
REMARK   14  A    between atoms: _42  and  _43
REMARK   15  A    between atoms: _42  and  _45
REMARK   16  A    between atoms: _45  and  _46
REMARK   17  A    between atoms: _50  and  _51
REMARK   18  A    between atoms: _56  and  _58
REMARK   19  A    between atoms: _58  and  _59
REMARK   20  A    between atoms: _58  and  _61
REMARK   21  A    between atoms: _61  and  _62
REMARK   22  A    between atoms: _67  and  _69
REMARK   23  A    between atoms: _69  and  _70
REMARK   24  A    between atoms: _72  and  _74
REMARK   25  A    between atoms: _74  and  _75
REMARK   26  A    between atoms: _74  and  _77
REMARK   27  A    between atoms: _77  and  _78
REMARK   28  A    between atoms: _83  and  _85
REMARK   29  A    between atoms: _85  and  _86
REMARK   30  A    between atoms: _85  and  _88
REMARK   31  A    between atoms: _88  and  _89
REMARK   32  A    between atoms: _89  and  _90
REMARK   33  A    between atoms: _90  and  _91
REMARK   34  A    between atoms: _91  and  _92
REMARK   35  A    between atoms: _96  and  _98
REMARK   36  A    between atoms: _98  and  _99
REMARK   37  A    between atoms: _98  and  _101
REMARK   38  A    between atoms: _101  and  _102
REMARK   39  A    between atoms: _105  and  _107
REMARK   40  A    between atoms: _107  and  _108
REMARK   41  A    between atoms: _107  and  _110
REMARK   42  A    between atoms: _113  and  _115
REMARK   43  A    between atoms: _115  and  _116
REMARK   44  A    between atoms: _115  and  _118
REMARK   45  A    between atoms: _118  and  _119
REMARK   46  A    between atoms: _122  and  _124
REMARK   47  A    between atoms: _124  and  _125
REMARK   48  A    between atoms: _124  and  _127
REMARK   49  A    between atoms: _127  and  _128
REMARK   50  A    between atoms: _131  and  _133
REMARK   51  A    between atoms: _133  and  _134
REMARK   52  A    between atoms: _136  and  _138
REMARK   53  A    between atoms: _138  and  _139
REMARK   54  A    between atoms: _141  and  _143
REMARK   55  A    between atoms: _143  and  _144
REMARK   56  A    between atoms: _143  and  _146
REMARK   57  A    between atoms: _146  and  _147
REMARK   58  A    between atoms: _147  and  _148
REMARK   59  A    between atoms: _153  and  _155
REMARK   60  A    between atoms: _155  and  _156
REMARK   61  A    between atoms: _155  and  _158
REMARK   62  A    between atoms: _158  and  _159
REMARK   63  A    between atoms: _165  and  _167
REMARK   64  A    between atoms: _167  and  _168
REMARK   65  A    between atoms: _167  and  _170
REMARK   66  A    between atoms: _170  and  _171
REMARK   67  A    between atoms: _177  and  _179
REMARK   68  A    between atoms: _179  and  _180
REMARK   69  A    between atoms: _179  and  _182
REMARK   70  A    between atoms: _182  and  _183
REMARK   71  A    between atoms: _185  and  _187
REMARK   72  A    between atoms: _187  and  _188
REMARK   73  A    between atoms: _187  and  _190
REMARK   74  A    between atoms: _190  and  _191
REMARK   75  A    between atoms: _196  and  _198
REMARK   76  A    between atoms: _198  and  _199
REMARK   77  A    between atoms: _198  and  _201
REMARK   78  A    between atoms: _201  and  _202
REMARK   79  A    between atoms: _207  and  _209
REMARK   80  A    between atoms: _209  and  _210
REMARK   81  A    between atoms: _209  and  _212
REMARK   82  A    between atoms: _212  and  _213
REMARK   83  A    between atoms: _213  and  _214
REMARK   84  A    between atoms: _214  and  _215
REMARK   85  A    between atoms: _215  and  _216
REMARK   86  A    between atoms: _220  and  _222
REMARK   87  A    between atoms: _222  and  _223
REMARK   88  A    between atoms: _222  and  _225
REMARK   89  A    between atoms: _225  and  _226
REMARK   90  A    between atoms: _230  and  _231
REMARK   91  A    between atoms: _236  and  _238
REMARK   92  A    between atoms: _238  and  _239
REMARK   93  A    between atoms: _242  and  _244
REMARK   94  A    between atoms: _244  and  _245
REMARK   95  A    between atoms: _244  and  _247
REMARK   96  A    between atoms: _247  and  _248
REMARK   97  A    between atoms: _254  and  _256
REMARK   98  A    between atoms: _256  and  _257
REMARK   99  A    between atoms: _256  and  _259
REMARK  100  A    between atoms: _259  and  _260
REMARK  101  A    between atoms: _260  and  _261
REMARK  102  A    between atoms: _264  and  _266
REMARK  103  A    between atoms: _266  and  _267
REMARK  104  A    between atoms: _266  and  _269
REMARK  105  A    between atoms: _269  and  _270
REMARK  106  A    between atoms: _272  and  _274
REMARK  107  A    between atoms: _274  and  _275
REMARK  108  A    between atoms: _277  and  _279
REMARK  109  A    between atoms: _279  and  _280
REMARK  110  A    between atoms: _283  and  _285
REMARK  111  A    between atoms: _285  and  _286
REMARK  112  A    between atoms: _285  and  _288
REMARK  113  A    between atoms: _288  and  _289
REMARK  114  A    between atoms: _292  and  _294
REMARK  115  A    between atoms: _294  and  _295
REMARK  116  A    between atoms: _294  and  _297
REMARK  117  A    between atoms: _297  and  _298
REMARK  118  A    between atoms: _301  and  _303
REMARK  119  A    between atoms: _303  and  _304
REMARK  120  A    between atoms: _303  and  _306
REMARK  121  A    between atoms: _306  and  _307
REMARK  122  A    between atoms: _307  and  _308
REMARK  123  A    between atoms: _313  and  _315
REMARK  124  A    between atoms: _315  and  _316
REMARK  125  A    between atoms: _315  and  _318
REMARK  126  A    between atoms: _321  and  _323
REMARK  127  A    between atoms: _323  and  _324
REMARK  128  A    between atoms: _326  and  _328
REMARK  129  A    between atoms: _328  and  _329
REMARK  130  A    between atoms: _331  and  _333
REMARK  131  A    between atoms: _333  and  _334
REMARK  132  A    between atoms: _333  and  _336
REMARK  133  A    between atoms: _336  and  _337
REMARK  134  A    between atoms: _340  and  _342
REMARK  135  A    between atoms: _342  and  _343
REMARK  136  A    between atoms: _346  and  _347
REMARK  137  A    between atoms: _352  and  _354
REMARK  138  A    between atoms: _354  and  _355
REMARK  139  A    between atoms: _354  and  _357
REMARK  140  A    between atoms: _357  and  _358
REMARK  141  A    between atoms: _358  and  _359
REMARK  142  A    between atoms: _361  and  _363
REMARK  143  A    between atoms: _363  and  _364
REMARK  144  A    between atoms: _363  and  _366
REMARK  145  A    between atoms: _366  and  _367
REMARK  146  A    between atoms: _370  and  _372
REMARK  147  A    between atoms: _372  and  _373
REMARK  148  A    between atoms: _375  and  _377
REMARK  149  A    between atoms: _377  and  _378
REMARK  150  A    between atoms: _377  and  _380
REMARK  151  A    between atoms: _380  and  _381
REMARK  152  A    between atoms: _381  and  _382
REMARK  153  A    between atoms: _387  and  _389
REMARK  154  A    between atoms: _389  and  _390
REMARK  155  A    between atoms: _389  and  _392
REMARK  156  A    between atoms: _392  and  _393
REMARK  157  A    between atoms: _398  and  _400
REMARK  158  A    between atoms: _400  and  _401
REMARK  159  A    between atoms: _400  and  _403
REMARK  160  A    between atoms: _403  and  _404
REMARK  161  A    between atoms: _409  and  _411
REMARK  162  A    between atoms: _411  and  _412
REMARK  163  A    between atoms: _411  and  _414
REMARK  164  A    between atoms: _414  and  _415
REMARK  165  A    between atoms: _420  and  _422
REMARK  166  A    between atoms: _422  and  _423
REMARK  167  A    between atoms: _422  and  _425
REMARK  168  A    between atoms: _425  and  _426
REMARK  169  A    between atoms: _432  and  _434
REMARK  170  A    between atoms: _434  and  _435
REMARK  171  A    between atoms: _438  and  _440
REMARK  172  A    between atoms: _440  and  _441
REMARK  173  A    between atoms: _444  and  _446
REMARK  174  A    between atoms: _446  and  _447
REMARK  175  A    between atoms: _446  and  _449
REMARK  176  A    between atoms: _449  and  _450
REMARK  177  A    between atoms: _460  and  _462
REMARK  178  A    between atoms: _462  and  _463
REMARK  179  A    between atoms: _462  and  _465
REMARK  180  A    between atoms: _465  and  _466
REMARK  181  A    between atoms: _466  and  _467
REMARK  182  A    between atoms: _472  and  _474
REMARK  183  A    between atoms: _474  and  _475
REMARK  184  A    between atoms: _474  and  _477
REMARK  185  A    between atoms: _477  and  _478
REMARK  186  A    between atoms: _484  and  _486
REMARK  187  A    between atoms: _486  and  _487
REMARK  188  A    between atoms: _486  and  _489
REMARK  189  A    between atoms: _489  and  _490
REMARK  190  A    between atoms: _500  and  _502
REMARK  191  A    between atoms: _502  and  _503
REMARK  192  A    between atoms: _502  and  _505
REMARK  193  A    between atoms: _505  and  _506
REMARK  194  A    between atoms: _506  and  _507
REMARK  195  A    between atoms: _512  and  _514
REMARK  196  A    between atoms: _514  and  _515
REMARK  197  A    between atoms: _514  and  _517
REMARK  198  A    between atoms: _520  and  _522
REMARK  199  A    between atoms: _522  and  _523
REMARK  200  A    between atoms: _525  and  _527
REMARK  201  A    between atoms: _527  and  _528
REMARK  202  A    between atoms: _530  and  _532
REMARK  203  A    between atoms: _532  and  _533
REMARK  204  A    between atoms: _532  and  _535
REMARK  205  A    between atoms: _535  and  _536
REMARK  206  A    between atoms: _540  and  _541
REMARK  207  A    between atoms: _546  and  _548
REMARK  208  A    between atoms: _548  and  _549
REMARK  209  A    between atoms: _548  and  _551
REMARK  210  A    between atoms: _551  and  _552
REMARK  211  A    between atoms: _552  and  _553
REMARK  212  A    between atoms: _555  and  _557
REMARK  213  A    between atoms: _557  and  _558
REMARK  214  A    between atoms: _557  and  _560
REMARK  215  A    between atoms: _560  and  _561
REMARK  216  A    between atoms: _566  and  _567
REMARK  217  A    between atoms: _569  and  _571
REMARK  218  A    between atoms: _571  and  _572
REMARK  219  A    between atoms: _571  and  _574
REMARK  220  A    between atoms: _574  and  _575
REMARK  221  A    between atoms: _575  and  _576
REMARK  222  A    between atoms: _576  and  _577
REMARK  223  A    between atoms: _586  and  _588
REMARK  224  A    between atoms: _588  and  _589
REMARK  225  A    between atoms: _588  and  _591
REMARK  226  A    between atoms: _591  and  _592
REMARK  227  A    between atoms: _597  and  _598
REMARK  228  A    between atoms: _600  and  _602
REMARK  229  A    between atoms: _602  and  _603
REMARK  230  A    between atoms: _602  and  _605
REMARK  231  A    between atoms: _605  and  _606
REMARK  232  A    between atoms: _606  and  _607
REMARK  233  A    between atoms: _610  and  _612
REMARK  234  A    between atoms: _612  and  _613
REMARK  235  A    between atoms: _612  and  _615
REMARK  236  A    between atoms: _615  and  _616
REMARK  237  A    between atoms: _616  and  _617
REMARK  238  A    between atoms: _617  and  _618
REMARK                            x       y       z     vdW  Elec       q    Type
REMARK                         _______ _______ _______ _____ _____    ______ ____
ROOT
ATOM      1  O   HOH     1      18.584  37.454  55.393  0.00  0.00    +0.000 OA
ENDROOT
TORSDOF 0
REMARK  Name = ../refined-set-2016/3gx0/3gx0_pocket.pdb
REMARK  238 active torsions:
REMARK  status: ('A' for Active; 'I' for Inactive)
REMARK    1  A    between atoms: _1  and  _3
REMARK    2  A    between atoms: _3  and  _4
REMARK    3  A    between atoms: _3  and  _6
REMARK    4  A    between atoms: _6  and  _7
REMARK    5  A    between atoms: _12  and  _13
REMARK    6  A    between atoms: _15  and  _17
REMARK    7  A    between atoms: _17  and  _18
REMARK    8  A    between atoms: _17  and  _20
REMARK    9  A    between atoms: _20  and  _21
REMARK   10  A    between atoms: _27  and  _29
REMARK   11  A    between atoms: _29  and  _30
REMARK   12  A    between atoms: _34  and  _35
REMARK   13  A    between atoms: _40  and  _42
REMARK   14  A    between atoms: _42  and  _43
REMARK   15  A    between atoms: _42  and  _45
REMARK   16  A    between atoms: _45  and  _46
REMARK   17  A    between atoms: _50  and  _51
REMARK   18  A    between atoms: _56  and  _58
REMARK   19  A    between atoms: _58  and  _59
REMARK   20  A    between atoms: _58  and  _61
REMARK   21  A    between atoms: _61  and  _62
REMARK   22  A    between atoms: _67  and  _69
REMARK   23  A    between atoms: _69  and  _70
REMARK   24  A    between atoms: _72  and  _74
REMARK   25  A    between atoms: _74  and  _75
REMARK   26  A    between atoms: _74  and  _77
REMARK   27  A    between atoms: _77  and  _78
REMARK   28  A    between atoms: _83  and  _85
REMARK   29  A    between atoms: _85  and  _86
REMARK   30  A    between atoms: _85  and  _88
REMARK   31  A    between atoms: _88  and  _89
REMARK   32  A    between atoms: _89  and  _90
REMARK   33  A    between atoms: _90  and  _91
REMARK   34  A    between atoms: _91  and  _92
REMARK   35  A    between atoms: _96  and  _98
REMARK   36  A    between atoms: _98  and  _99
REMARK   37  A    between atoms: _98  and  _101
REMARK   38  A    between atoms: _101  and  _102
REMARK   39  A    between atoms: _105  and  _107
REMARK   40  A    between atoms: _107  and  _108
REMARK   41  A    between atoms: _107  and  _110
REMARK   42  A    between atoms: _113  and  _115
REMARK   43  A    between atoms: _115  and  _116
REMARK   44  A    between atoms: _115  and  _118
REMARK   45  A    between atoms: _118  and  _119
REMARK   46  A    between atoms: _122  and  _124
REMARK   47  A    between atoms: _124  and  _125
REMARK   48  A    between atoms: _124  and  _127
REMARK   49  A    between atoms: _127  and  _128
REMARK   50  A    between atoms: _131  and  _133
REMARK   51  A    between atoms: _133  and  _134
REMARK   52  A    between atoms: _136  and  _138
REMARK   53  A    between atoms: _138  and  _139
REMARK   54  A    between atoms: _141  and  _143
REMARK   55  A    between atoms: _143  and  _144
REMARK   56  A    between atoms: _143  and  _146
REMARK   57  A    between atoms: _146  and  _147
REMARK   58  A    between atoms: _147  and  _148
REMARK   59  A    between atoms: _153  and  _155
REMARK   60  A    between atoms: _155  and  _156
REMARK   61  A    between atoms: _155  and  _158
REMARK   62  A    between atoms: _158  and  _159
REMARK   63  A    between atoms: _165  and  _167
REMARK   64  A    between atoms: _167  and  _168
REMARK   65  A    between atoms: _167  and  _170
REMARK   66  A    between atoms: _170  and  _171
REMARK   67  A    between atoms: _177  and  _179
REMARK   68  A    between atoms: _179  and  _180
REMARK   69  A    between atoms: _179  and  _182
REMARK   70  A    between atoms: _182  and  _183
REMARK   71  A    between atoms: _185  and  _187
REMARK   72  A    between atoms: _187  and  _188
REMARK   73  A    between atoms: _187  and  _190
REMARK   74  A    between atoms: _190  and  _191
REMARK   75  A    between atoms: _196  and  _198
REMARK   76  A    between atoms: _198  and  _199
REMARK   77  A    between atoms: _198  and  _201
REMARK   78  A    between atoms: _201  and  _202
REMARK   79  A    between atoms: _207  and  _209
REMARK   80  A    between atoms: _209  and  _210
REMARK   81  A    between atoms: _209  and  _212
REMARK   82  A    between atoms: _212  and  _213
REMARK   83  A    between atoms: _213  and  _214
REMARK   84  A    between atoms: _214  and  _215
REMARK   85  A    between atoms: _215  and  _216
REMARK   86  A    between atoms: _220  and  _222
REMARK   87  A    between atoms: _222  and  _223
REMARK   88  A    between atoms: _222  and  _225
REMARK   89  A    between atoms: _225  and  _226
REMARK   90  A    between atoms: _230  and  _231
REMARK   91  A    between atoms: _236  and  _238
REMARK   92  A    between atoms: _238  and  _239
REMARK   93  A    between atoms: _242  and  _244
REMARK   94  A    between atoms: _244  and  _245
REMARK   95  A    between atoms: _244  and  _247
REMARK   96  A    between atoms: _247  and  _248
REMARK   97  A    between atoms: _254  and  _256
REMARK   98  A    between atoms: _256  and  _257
REMARK   99  A    between atoms: _256  and  _259
REMARK  100  A    between atoms: _259  and  _260
REMARK  101  A    between atoms: _260  and  _261
REMARK  102  A    between atoms: _264  and  _266
REMARK  103  A    between atoms: _266  and  _267
REMARK  104  A    between atoms: _266  and  _269
REMARK  105  A    between atoms: _269  and  _270
REMARK  106  A    between atoms: _272  and  _274
REMARK  107  A    between atoms: _274  and  _275
REMARK  108  A    between atoms: _277  and  _279
REMARK  109  A    between atoms: _279  and  _280
REMARK  110  A    between atoms: _283  and  _285
REMARK  111  A    between atoms: _285  and  _286
REMARK  112  A    between atoms: _285  and  _288
REMARK  113  A    between atoms: _288  and  _289
REMARK  114  A    between atoms: _292  and  _294
REMARK  115  A    between atoms: _294  and  _295
REMARK  116  A    between atoms: _294  and  _297
REMARK  117  A    between atoms: _297  and  _298
REMARK  118  A    between atoms: _301  and  _303
REMARK  119  A    between atoms: _303  and  _304
REMARK  120  A    between atoms: _303  and  _306
REMARK  121  A    between atoms: _306  and  _307
REMARK  122  A    between atoms: _307  and  _308
REMARK  123  A    between atoms: _313  and  _315
REMARK  124  A    between atoms: _315  and  _316
REMARK  125  A    between atoms: _315  and  _318
REMARK  126  A    between atoms: _321  and  _323
REMARK  127  A    between atoms: _323  and  _324
REMARK  128  A    between atoms: _326  and  _328
REMARK  129  A    between atoms: _328  and  _329
REMARK  130  A    between atoms: _331  and  _333
REMARK  131  A    between atoms: _333  and  _334
REMARK  132  A    between atoms: _333  and  _336
REMARK  133  A    between atoms: _336  and  _337
REMARK  134  A    between atoms: _340  and  _342
REMARK  135  A    between atoms: _342  and  _343
REMARK  136  A    between atoms: _346  and  _347
REMARK  137  A    between atoms: _352  and  _354
REMARK  138  A    between atoms: _354  and  _355
REMARK  139  A    between atoms: _354  and  _357
REMARK  140  A    between atoms: _357  and  _358
REMARK  141  A    between atoms: _358  and  _359
REMARK  142  A    between atoms: _361  and  _363
REMARK  143  A    between atoms: _363  and  _364
REMARK  144  A    between atoms: _363  and  _366
REMARK  145  A    between atoms: _366  and  _367
REMARK  146  A    between atoms: _370  and  _372
REMARK  147  A    between atoms: _372  and  _373
REMARK  148  A    between atoms: _375  and  _377
REMARK  149  A    between atoms: _377  and  _378
REMARK  150  A    between atoms: _377  and  _380
REMARK  151  A    between atoms: _380  and  _381
REMARK  152  A    between atoms: _381  and  _382
REMARK  153  A    between atoms: _387  and  _389
REMARK  154  A    between atoms: _389  and  _390
REMARK  155  A    between atoms: _389  and  _392
REMARK  156  A    between atoms: _392  and  _393
REMARK  157  A    between atoms: _398  and  _400
REMARK  158  A    between atoms: _400  and  _401
REMARK  159  A    between atoms: _400  and  _403
REMARK  160  A    between atoms: _403  and  _404
REMARK  161  A    between atoms: _409  and  _411
REMARK  162  A    between atoms: _411  and  _412
REMARK  163  A    between atoms: _411  and  _414
REMARK  164  A    between atoms: _414  and  _415
REMARK  165  A    between atoms: _420  and  _422
REMARK  166  A    between atoms: _422  and  _423
REMARK  167  A    between atoms: _422  and  _425
REMARK  168  A    between atoms: _425  and  _426
REMARK  169  A    between atoms: _432  and  _434
REMARK  170  A    between atoms: _434  and  _435
REMARK  171  A    between atoms: _438  and  _440
REMARK  172  A    between atoms: _440  and  _441
REMARK  173  A    between atoms: _444  and  _446
REMARK  174  A    between atoms: _446  and  _447
REMARK  175  A    between atoms: _446  and  _449
REMARK  176  A    between atoms: _449  and  _450
REMARK  177  A    between atoms: _460  and  _462
REMARK  178  A    between atoms: _462  and  _463
REMARK  179  A    between atoms: _462  and  _465
REMARK  180  A    between atoms: _465  and  _466
REMARK  181  A    between atoms: _466  and  _467
REMARK  182  A    between atoms: _472  and  _474
REMARK  183  A    between atoms: _474  and  _475
REMARK  184  A    between atoms: _474  and  _477
REMARK  185  A    between atoms: _477  and  _478
REMARK  186  A    between atoms: _484  and  _486
REMARK  187  A    between atoms: _486  and  _487
REMARK  188  A    between atoms: _486  and  _489
REMARK  189  A    between atoms: _489  and  _490
REMARK  190  A    between atoms: _500  and  _502
REMARK  191  A    between atoms: _502  and  _503
REMARK  192  A    between atoms: _502  and  _505
REMARK  193  A    between atoms: _505  and  _506
REMARK  194  A    between atoms: _506  and  _507
REMARK  195  A    between atoms: _512  and  _514
REMARK  196  A    between atoms: _514  and  _515
REMARK  197  A    between atoms: _514  and  _517
REMARK  198  A    between atoms: _520  and  _522
REMARK  199  A    between atoms: _522  and  _523
REMARK  200  A    between atoms: _525  and  _527
REMARK  201  A    between atoms: _527  and  _528
REMARK  202  A    between atoms: _530  and  _532
REMARK  203  A    between atoms: _532  and  _533
REMARK  204  A    between atoms: _532  and  _535
REMARK  205  A    between atoms: _535  and  _536
REMARK  206  A    between atoms: _540  and  _541
REMARK  207  A    between atoms: _546  and  _548
REMARK  208  A    between atoms: _548  and  _549
REMARK  209  A    between atoms: _548  and  _551
REMARK  210  A    between atoms: _551  and  _552
REMARK  211  A    between atoms: _552  and  _553
REMARK  212  A    between atoms: _555  and  _557
REMARK  213  A    between atoms: _557  and  _558
REMARK  214  A    between atoms: _557  and  _560
REMARK  215  A    between atoms: _560  and  _561
REMARK  216  A    between atoms: _566  and  _567
REMARK  217  A    between atoms: _569  and  _571
REMARK  218  A    between atoms: _571  and  _572
REMARK  219  A    between atoms: _571  and  _574
REMARK  220  A    between atoms: _574  and  _575
REMARK  221  A    between atoms: _575  and  _576
REMARK  222  A    between atoms: _576  and  _577
REMARK  223  A    between atoms: _586  and  _588
REMARK  224  A    between atoms: _588  and  _589
REMARK  225  A    between atoms: _588  and  _591
REMARK  226  A    between atoms: _591  and  _592
REMARK  227  A    between atoms: _597  and  _598
REMARK  228  A    between atoms: _600  and  _602
REMARK  229  A    between atoms: _602  and  _603
REMARK  230  A    between atoms: _602  and  _605
REMARK  231  A    between atoms: _605  and  _606
REMARK  232  A    between atoms: _606  and  _607
REMARK  233  A    between atoms: _610  and  _612
REMARK  234  A    between atoms: _612  and  _613
REMARK  235  A    between atoms: _612  and  _615
REMARK  236  A    between atoms: _615  and  _616
REMARK  237  A    between atoms: _616  and  _617
REMARK  238  A    between atoms: _617  and  _618
REMARK                            x       y       z     vdW  Elec       q    Type
REMARK                         _______ _______ _______ _____ _____    ______ ____
ROOT
ATOM      1  O   HOH     1      29.337  44.164  58.806  0.00  0.00    +0.000 OA
ENDROOT
TORSDOF 0
REMARK  Name = ../refined-set-2016/3gx0/3gx0_pocket.pdb
REMARK  238 active torsions:
REMARK  status: ('A' for Active; 'I' for Inactive)
REMARK    1  A    between atoms: _1  and  _3
REMARK    2  A    between atoms: _3  and  _4
REMARK    3  A    between atoms: _3  and  _6
REMARK    4  A    between atoms: _6  and  _7
REMARK    5  A    between atoms: _12  and  _13
REMARK    6  A    between atoms: _15  and  _17
REMARK    7  A    between atoms: _17  and  _18
REMARK    8  A    between atoms: _17  and  _20
REMARK    9  A    between atoms: _20  and  _21
REMARK   10  A    between atoms: _27  and  _29
REMARK   11  A    between atoms: _29  and  _30
REMARK   12  A    between atoms: _34  and  _35
REMARK   13  A    between atoms: _40  and  _42
REMARK   14  A    between atoms: _42  and  _43
REMARK   15  A    between atoms: _42  and  _45
REMARK   16  A    between atoms: _45  and  _46
REMARK   17  A    between atoms: _50  and  _51
REMARK   18  A    between atoms: _56  and  _58
REMARK   19  A    between atoms: _58  and  _59
REMARK   20  A    between atoms: _58  and  _61
REMARK   21  A    between atoms: _61  and  _62
REMARK   22  A    between atoms: _67  and  _69
REMARK   23  A    between atoms: _69  and  _70
REMARK   24  A    between atoms: _72  and  _74
REMARK   25  A    between atoms: _74  and  _75
REMARK   26  A    between atoms: _74  and  _77
REMARK   27  A    between atoms: _77  and  _78
REMARK   28  A    between atoms: _83  and  _85
REMARK   29  A    between atoms: _85  and  _86
REMARK   30  A    between atoms: _85  and  _88
REMARK   31  A    between atoms: _88  and  _89
REMARK   32  A    between atoms: _89  and  _90
REMARK   33  A    between atoms: _90  and  _91
REMARK   34  A    between atoms: _91  and  _92
REMARK   35  A    between atoms: _96  and  _98
REMARK   36  A    between atoms: _98  and  _99
REMARK   37  A    between atoms: _98  and  _101
REMARK   38  A    between atoms: _101  and  _102
REMARK   39  A    between atoms: _105  and  _107
REMARK   40  A    between atoms: _107  and  _108
REMARK   41  A    between atoms: _107  and  _110
REMARK   42  A    between atoms: _113  and  _115
REMARK   43  A    between atoms: _115  and  _116
REMARK   44  A    between atoms: _115  and  _118
REMARK   45  A    between atoms: _118  and  _119
REMARK   46  A    between atoms: _122  and  _124
REMARK   47  A    between atoms: _124  and  _125
REMARK   48  A    between atoms: _124  and  _127
REMARK   49  A    between atoms: _127  and  _128
REMARK   50  A    between atoms: _131  and  _133
REMARK   51  A    between atoms: _133  and  _134
REMARK   52  A    between atoms: _136  and  _138
REMARK   53  A    between atoms: _138  and  _139
REMARK   54  A    between atoms: _141  and  _143
REMARK   55  A    between atoms: _143  and  _144
REMARK   56  A    between atoms: _143  and  _146
REMARK   57  A    between atoms: _146  and  _147
REMARK   58  A    between atoms: _147  and  _148
REMARK   59  A    between atoms: _153  and  _155
REMARK   60  A    between atoms: _155  and  _156
REMARK   61  A    between atoms: _155  and  _158
REMARK   62  A    between atoms: _158  and  _159
REMARK   63  A    between atoms: _165  and  _167
REMARK   64  A    between atoms: _167  and  _168
REMARK   65  A    between atoms: _167  and  _170
REMARK   66  A    between atoms: _170  and  _171
REMARK   67  A    between atoms: _177  and  _179
REMARK   68  A    between atoms: _179  and  _180
REMARK   69  A    between atoms: _179  and  _182
REMARK   70  A    between atoms: _182  and  _183
REMARK   71  A    between atoms: _185  and  _187
REMARK   72  A    between atoms: _187  and  _188
REMARK   73  A    between atoms: _187  and  _190
REMARK   74  A    between atoms: _190  and  _191
REMARK   75  A    between atoms: _196  and  _198
REMARK   76  A    between atoms: _198  and  _199
REMARK   77  A    between atoms: _198  and  _201
REMARK   78  A    between atoms: _201  and  _202
REMARK   79  A    between atoms: _207  and  _209
REMARK   80  A    between atoms: _209  and  _210
REMARK   81  A    between atoms: _209  and  _212
REMARK   82  A    between atoms: _212  and  _213
REMARK   83  A    between atoms: _213  and  _214
REMARK   84  A    between atoms: _214  and  _215
REMARK   85  A    between atoms: _215  and  _216
REMARK   86  A    between atoms: _220  and  _222
REMARK   87  A    between atoms: _222  and  _223
REMARK   88  A    between atoms: _222  and  _225
REMARK   89  A    between atoms: _225  and  _226
REMARK   90  A    between atoms: _230  and  _231
REMARK   91  A    between atoms: _236  and  _238
REMARK   92  A    between atoms: _238  and  _239
REMARK   93  A    between atoms: _242  and  _244
REMARK   94  A    between atoms: _244  and  _245
REMARK   95  A    between atoms: _244  and  _247
REMARK   96  A    between atoms: _247  and  _248
REMARK   97  A    between atoms: _254  and  _256
REMARK   98  A    between atoms: _256  and  _257
REMARK   99  A    between atoms: _256  and  _259
REMARK  100  A    between atoms: _259  and  _260
REMARK  101  A    between atoms: _260  and  _261
REMARK  102  A    between atoms: _264  and  _266
REMARK  103  A    between atoms: _266  and  _267
REMARK  104  A    between atoms: _266  and  _269
REMARK  105  A    between atoms: _269  and  _270
REMARK  106  A    between atoms: _272  and  _274
REMARK  107  A    between atoms: _274  and  _275
REMARK  108  A    between atoms: _277  and  _279
REMARK  109  A    between atoms: _279  and  _280
REMARK  110  A    between atoms: _283  and  _285
REMARK  111  A    between atoms: _285  and  _286
REMARK  112  A    between atoms: _285  and  _288
REMARK  113  A    between atoms: _288  and  _289
REMARK  114  A    between atoms: _292  and  _294
REMARK  115  A    between atoms: _294  and  _295
REMARK  116  A    between atoms: _294  and  _297
REMARK  117  A    between atoms: _297  and  _298
REMARK  118  A    between atoms: _301  and  _303
REMARK  119  A    between atoms: _303  and  _304
REMARK  120  A    between atoms: _303  and  _306
REMARK  121  A    between atoms: _306  and  _307
REMARK  122  A    between atoms: _307  and  _308
REMARK  123  A    between atoms: _313  and  _315
REMARK  124  A    between atoms: _315  and  _316
REMARK  125  A    between atoms: _315  and  _318
REMARK  126  A    between atoms: _321  and  _323
REMARK  127  A    between atoms: _323  and  _324
REMARK  128  A    between atoms: _326  and  _328
REMARK  129  A    between atoms: _328  and  _329
REMARK  130  A    between atoms: _331  and  _333
REMARK  131  A    between atoms: _333  and  _334
REMARK  132  A    between atoms: _333  and  _336
REMARK  133  A    between atoms: _336  and  _337
REMARK  134  A    between atoms: _340  and  _342
REMARK  135  A    between atoms: _342  and  _343
REMARK  136  A    between atoms: _346  and  _347
REMARK  137  A    between atoms: _352  and  _354
REMARK  138  A    between atoms: _354  and  _355
REMARK  139  A    between atoms: _354  and  _357
REMARK  140  A    between atoms: _357  and  _358
REMARK  141  A    between atoms: _358  and  _359
REMARK  142  A    between atoms: _361  and  _363
REMARK  143  A    between atoms: _363  and  _364
REMARK  144  A    between atoms: _363  and  _366
REMARK  145  A    between atoms: _366  and  _367
REMARK  146  A    between atoms: _370  and  _372
REMARK  147  A    between atoms: _372  and  _373
REMARK  148  A    between atoms: _375  and  _377
REMARK  149  A    between atoms: _377  and  _378
REMARK  150  A    between atoms: _377  and  _380
REMARK  151  A    between atoms: _380  and  _381
REMARK  152  A    between atoms: _381  and  _382
REMARK  153  A    between atoms: _387  and  _389
REMARK  154  A    between atoms: _389  and  _390
REMARK  155  A    between atoms: _389  and  _392
REMARK  156  A    between atoms: _392  and  _393
REMARK  157  A    between atoms: _398  and  _400
REMARK  158  A    between atoms: _400  and  _401
REMARK  159  A    between atoms: _400  and  _403
REMARK  160  A    between atoms: _403  and  _404
REMARK  161  A    between atoms: _409  and  _411
REMARK  162  A    between atoms: _411  and  _412
REMARK  163  A    between atoms: _411  and  _414
REMARK  164  A    between atoms: _414  and  _415
REMARK  165  A    between atoms: _420  and  _422
REMARK  166  A    between atoms: _422  and  _423
REMARK  167  A    between atoms: _422  and  _425
REMARK  168  A    between atoms: _425  and  _426
REMARK  169  A    between atoms: _432  and  _434
REMARK  170  A    between atoms: _434  and  _435
REMARK  171  A    between atoms: _438  and  _440
REMARK  172  A    between atoms: _440  and  _441
REMARK  173  A    between atoms: _444  and  _446
REMARK  174  A    between atoms: _446  and  _447
REMARK  175  A    between atoms: _446  and  _449
REMARK  176  A    between atoms: _449  and  _450
REMARK  177  A    between atoms: _460  and  _462
REMARK  178  A    between atoms: _462  and  _463
REMARK  179  A    between atoms: _462  and  _465
REMARK  180  A    between atoms: _465  and  _466
REMARK  181  A    between atoms: _466  and  _467
REMARK  182  A    between atoms: _472  and  _474
REMARK  183  A    between atoms: _474  and  _475
REMARK  184  A    between atoms: _474  and  _477
REMARK  185  A    between atoms: _477  and  _478
REMARK  186  A    between atoms: _484  and  _486
REMARK  187  A    between atoms: _486  and  _487
REMARK  188  A    between atoms: _486  and  _489
REMARK  189  A    between atoms: _489  and  _490
REMARK  190  A    between atoms: _500  and  _502
REMARK  191  A    between atoms: _502  and  _503
REMARK  192  A    between atoms: _502  and  _505
REMARK  193  A    between atoms: _505  and  _506
REMARK  194  A    between atoms: _506  and  _507
REMARK  195  A    between atoms: _512  and  _514
REMARK  196  A    between atoms: _514  and  _515
REMARK  197  A    between atoms: _514  and  _517
REMARK  198  A    between atoms: _520  and  _522
REMARK  199  A    between atoms: _522  and  _523
REMARK  200  A    between atoms: _525  and  _527
REMARK  201  A    between atoms: _527  and  _528
REMARK  202  A    between atoms: _530  and  _532
REMARK  203  A    between atoms: _532  and  _533
REMARK  204  A    between atoms: _532  and  _535
REMARK  205  A    between atoms: _535  and  _536
REMARK  206  A    between atoms: _540  and  _541
REMARK  207  A    between atoms: _546  and  _548
REMARK  208  A    between atoms: _548  and  _549
REMARK  209  A    between atoms: _548  and  _551
REMARK  210  A    between atoms: _551  and  _552
REMARK  211  A    between atoms: _552  and  _553
REMARK  212  A    between atoms: _555  and  _557
REMARK  213  A    between atoms: _557  and  _558
REMARK  214  A    between atoms: _557  and  _560
REMARK  215  A    between atoms: _560  and  _561
REMARK  216  A    between atoms: _566  and  _567
REMARK  217  A    between atoms: _569  and  _571
REMARK  218  A    between atoms: _571  and  _572
REMARK  219  A    between atoms: _571  and  _574
REMARK  220  A    between atoms: _574  and  _575
REMARK  221  A    between atoms: _575  and  _576
REMARK  222  A    between atoms: _576  and  _577
REMARK  223  A    between atoms: _586  and  _588
REMARK  224  A    between atoms: _588  and  _589
REMARK  225  A    between atoms: _588  and  _591
REMARK  226  A    between atoms: _591  and  _592
REMARK  227  A    between atoms: _597  and  _598
REMARK  228  A    between atoms: _600  and  _602
REMARK  229  A    between atoms: _602  and  _603
REMARK  230  A    between atoms: _602  and  _605
REMARK  231  A    between atoms: _605  and  _606
REMARK  232  A    between atoms: _606  and  _607
REMARK  233  A    between atoms: _610  and  _612
REMARK  234  A    between atoms: _612  and  _613
REMARK  235  A    between atoms: _612  and  _615
REMARK  236  A    between atoms: _615  and  _616
REMARK  237  A    between atoms: _616  and  _617
REMARK  238  A    between atoms: _617  and  _618
REMARK                            x       y       z     vdW  Elec       q    Type
REMARK                         _______ _______ _______ _____ _____    ______ ____
ROOT
ATOM      1  O   HOH     1      31.715  44.921  58.116  0.00  0.00    +0.000 OA
ENDROOT
TORSDOF 0
REMARK  Name = ../refined-set-2016/3gx0/3gx0_pocket.pdb
REMARK  238 active torsions:
REMARK  status: ('A' for Active; 'I' for Inactive)
REMARK    1  A    between atoms: _1  and  _3
REMARK    2  A    between atoms: _3  and  _4
REMARK    3  A    between atoms: _3  and  _6
REMARK    4  A    between atoms: _6  and  _7
REMARK    5  A    between atoms: _12  and  _13
REMARK    6  A    between atoms: _15  and  _17
REMARK    7  A    between atoms: _17  and  _18
REMARK    8  A    between atoms: _17  and  _20
REMARK    9  A    between atoms: _20  and  _21
REMARK   10  A    between atoms: _27  and  _29
REMARK   11  A    between atoms: _29  and  _30
REMARK   12  A    between atoms: _34  and  _35
REMARK   13  A    between atoms: _40  and  _42
REMARK   14  A    between atoms: _42  and  _43
REMARK   15  A    between atoms: _42  and  _45
REMARK   16  A    between atoms: _45  and  _46
REMARK   17  A    between atoms: _50  and  _51
REMARK   18  A    between atoms: _56  and  _58
REMARK   19  A    between atoms: _58  and  _59
REMARK   20  A    between atoms: _58  and  _61
REMARK   21  A    between atoms: _61  and  _62
REMARK   22  A    between atoms: _67  and  _69
REMARK   23  A    between atoms: _69  and  _70
REMARK   24  A    between atoms: _72  and  _74
REMARK   25  A    between atoms: _74  and  _75
REMARK   26  A    between atoms: _74  and  _77
REMARK   27  A    between atoms: _77  and  _78
REMARK   28  A    between atoms: _83  and  _85
REMARK   29  A    between atoms: _85  and  _86
REMARK   30  A    between atoms: _85  and  _88
REMARK   31  A    between atoms: _88  and  _89
REMARK   32  A    between atoms: _89  and  _90
REMARK   33  A    between atoms: _90  and  _91
REMARK   34  A    between atoms: _91  and  _92
REMARK   35  A    between atoms: _96  and  _98
REMARK   36  A    between atoms: _98  and  _99
REMARK   37  A    between atoms: _98  and  _101
REMARK   38  A    between atoms: _101  and  _102
REMARK   39  A    between atoms: _105  and  _107
REMARK   40  A    between atoms: _107  and  _108
REMARK   41  A    between atoms: _107  and  _110
REMARK   42  A    between atoms: _113  and  _115
REMARK   43  A    between atoms: _115  and  _116
REMARK   44  A    between atoms: _115  and  _118
REMARK   45  A    between atoms: _118  and  _119
REMARK   46  A    between atoms: _122  and  _124
REMARK   47  A    between atoms: _124  and  _125
REMARK   48  A    between atoms: _124  and  _127
REMARK   49  A    between atoms: _127  and  _128
REMARK   50  A    between atoms: _131  and  _133
REMARK   51  A    between atoms: _133  and  _134
REMARK   52  A    between atoms: _136  and  _138
REMARK   53  A    between atoms: _138  and  _139
REMARK   54  A    between atoms: _141  and  _143
REMARK   55  A    between atoms: _143  and  _144
REMARK   56  A    between atoms: _143  and  _146
REMARK   57  A    between atoms: _146  and  _147
REMARK   58  A    between atoms: _147  and  _148
REMARK   59  A    between atoms: _153  and  _155
REMARK   60  A    between atoms: _155  and  _156
REMARK   61  A    between atoms: _155  and  _158
REMARK   62  A    between atoms: _158  and  _159
REMARK   63  A    between atoms: _165  and  _167
REMARK   64  A    between atoms: _167  and  _168
REMARK   65  A    between atoms: _167  and  _170
REMARK   66  A    between atoms: _170  and  _171
REMARK   67  A    between atoms: _177  and  _179
REMARK   68  A    between atoms: _179  and  _180
REMARK   69  A    between atoms: _179  and  _182
REMARK   70  A    between atoms: _182  and  _183
REMARK   71  A    between atoms: _185  and  _187
REMARK   72  A    between atoms: _187  and  _188
REMARK   73  A    between atoms: _187  and  _190
REMARK   74  A    between atoms: _190  and  _191
REMARK   75  A    between atoms: _196  and  _198
REMARK   76  A    between atoms: _198  and  _199
REMARK   77  A    between atoms: _198  and  _201
REMARK   78  A    between atoms: _201  and  _202
REMARK   79  A    between atoms: _207  and  _209
REMARK   80  A    between atoms: _209  and  _210
REMARK   81  A    between atoms: _209  and  _212
REMARK   82  A    between atoms: _212  and  _213
REMARK   83  A    between atoms: _213  and  _214
REMARK   84  A    between atoms: _214  and  _215
REMARK   85  A    between atoms: _215  and  _216
REMARK   86  A    between atoms: _220  and  _222
REMARK   87  A    between atoms: _222  and  _223
REMARK   88  A    between atoms: _222  and  _225
REMARK   89  A    between atoms: _225  and  _226
REMARK   90  A    between atoms: _230  and  _231
REMARK   91  A    between atoms: _236  and  _238
REMARK   92  A    between atoms: _238  and  _239
REMARK   93  A    between atoms: _242  and  _244
REMARK   94  A    between atoms: _244  and  _245
REMARK   95  A    between atoms: _244  and  _247
REMARK   96  A    between atoms: _247  and  _248
REMARK   97  A    between atoms: _254  and  _256
REMARK   98  A    between atoms: _256  and  _257
REMARK   99  A    between atoms: _256  and  _259
REMARK  100  A    between atoms: _259  and  _260
REMARK  101  A    between atoms: _260  and  _261
REMARK  102  A    between atoms: _264  and  _266
REMARK  103  A    between atoms: _266  and  _267
REMARK  104  A    between atoms: _266  and  _269
REMARK  105  A    between atoms: _269  and  _270
REMARK  106  A    between atoms: _272  and  _274
REMARK  107  A    between atoms: _274  and  _275
REMARK  108  A    between atoms: _277  and  _279
REMARK  109  A    between atoms: _279  and  _280
REMARK  110  A    between atoms: _283  and  _285
REMARK  111  A    between atoms: _285  and  _286
REMARK  112  A    between atoms: _285  and  _288
REMARK  113  A    between atoms: _288  and  _289
REMARK  114  A    between atoms: _292  and  _294
REMARK  115  A    between atoms: _294  and  _295
REMARK  116  A    between atoms: _294  and  _297
REMARK  117  A    between atoms: _297  and  _298
REMARK  118  A    between atoms: _301  and  _303
REMARK  119  A    between atoms: _303  and  _304
REMARK  120  A    between atoms: _303  and  _306
REMARK  121  A    between atoms: _306  and  _307
REMARK  122  A    between atoms: _307  and  _308
REMARK  123  A    between atoms: _313  and  _315
REMARK  124  A    between atoms: _315  and  _316
REMARK  125  A    between atoms: _315  and  _318
REMARK  126  A    between atoms: _321  and  _323
REMARK  127  A    between atoms: _323  and  _324
REMARK  128  A    between atoms: _326  and  _328
REMARK  129  A    between atoms: _328  and  _329
REMARK  130  A    between atoms: _331  and  _333
REMARK  131  A    between atoms: _333  and  _334
REMARK  132  A    between atoms: _333  and  _336
REMARK  133  A    between atoms: _336  and  _337
REMARK  134  A    between atoms: _340  and  _342
REMARK  135  A    between atoms: _342  and  _343
REMARK  136  A    between atoms: _346  and  _347
REMARK  137  A    between atoms: _352  and  _354
REMARK  138  A    between atoms: _354  and  _355
REMARK  139  A    between atoms: _354  and  _357
REMARK  140  A    between atoms: _357  and  _358
REMARK  141  A    between atoms: _358  and  _359
REMARK  142  A    between atoms: _361  and  _363
REMARK  143  A    between atoms: _363  and  _364
REMARK  144  A    between atoms: _363  and  _366
REMARK  145  A    between atoms: _366  and  _367
REMARK  146  A    between atoms: _370  and  _372
REMARK  147  A    between atoms: _372  and  _373
REMARK  148  A    between atoms: _375  and  _377
REMARK  149  A    between atoms: _377  and  _378
REMARK  150  A    between atoms: _377  and  _380
REMARK  151  A    between atoms: _380  and  _381
REMARK  152  A    between atoms: _381  and  _382
REMARK  153  A    between atoms: _387  and  _389
REMARK  154  A    between atoms: _389  and  _390
REMARK  155  A    between atoms: _389  and  _392
REMARK  156  A    between atoms: _392  and  _393
REMARK  157  A    between atoms: _398  and  _400
REMARK  158  A    between atoms: _400  and  _401
REMARK  159  A    between atoms: _400  and  _403
REMARK  160  A    between atoms: _403  and  _404
REMARK  161  A    between atoms: _409  and  _411
REMARK  162  A    between atoms: _411  and  _412
REMARK  163  A    between atoms: _411  and  _414
REMARK  164  A    between atoms: _414  and  _415
REMARK  165  A    between atoms: _420  and  _422
REMARK  166  A    between atoms: _422  and  _423
REMARK  167  A    between atoms: _422  and  _425
REMARK  168  A    between atoms: _425  and  _426
REMARK  169  A    between atoms: _432  and  _434
REMARK  170  A    between atoms: _434  and  _435
REMARK  171  A    between atoms: _438  and  _440
REMARK  172  A    between atoms: _440  and  _441
REMARK  173  A    between atoms: _444  and  _446
REMARK  174  A    between atoms: _446  and  _447
REMARK  175  A    between atoms: _446  and  _449
REMARK  176  A    between atoms: _449  and  _450
REMARK  177  A    between atoms: _460  and  _462
REMARK  178  A    between atoms: _462  and  _463
REMARK  179  A    between atoms: _462  and  _465
REMARK  180  A    between atoms: _465  and  _466
REMARK  181  A    between atoms: _466  and  _467
REMARK  182  A    between atoms: _472  and  _474
REMARK  183  A    between atoms: _474  and  _475
REMARK  184  A    between atoms: _474  and  _477
REMARK  185  A    between atoms: _477  and  _478
REMARK  186  A    between atoms: _484  and  _486
REMARK  187  A    between atoms: _486  and  _487
REMARK  188  A    between atoms: _486  and  _489
REMARK  189  A    between atoms: _489  and  _490
REMARK  190  A    between atoms: _500  and  _502
REMARK  191  A    between atoms: _502  and  _503
REMARK  192  A    between atoms: _502  and  _505
REMARK  193  A    between atoms: _505  and  _506
REMARK  194  A    between atoms: _506  and  _507
REMARK  195  A    between atoms: _512  and  _514
REMARK  196  A    between atoms: _514  and  _515
REMARK  197  A    between atoms: _514  and  _517
REMARK  198  A    between atoms: _520  and  _522
REMARK  199  A    between atoms: _522  and  _523
REMARK  200  A    between atoms: _525  and  _527
REMARK  201  A    between atoms: _527  and  _528
REMARK  202  A    between atoms: _530  and  _532
REMARK  203  A    between atoms: _532  and  _533
REMARK  204  A    between atoms: _532  and  _535
REMARK  205  A    between atoms: _535  and  _536
REMARK  206  A    between atoms: _540  and  _541
REMARK  207  A    between atoms: _546  and  _548
REMARK  208  A    between atoms: _548  and  _549
REMARK  209  A    between atoms: _548  and  _551
REMARK  210  A    between atoms: _551  and  _552
REMARK  211  A    between atoms: _552  and  _553
REMARK  212  A    between atoms: _555  and  _557
REMARK  213  A    between atoms: _557  and  _558
REMARK  214  A    between atoms: _557  and  _560
REMARK  215  A    between atoms: _560  and  _561
REMARK  216  A    between atoms: _566  and  _567
REMARK  217  A    between atoms: _569  and  _571
REMARK  218  A    between atoms: _571  and  _572
REMARK  219  A    between atoms: _571  and  _574
REMARK  220  A    between atoms: _574  and  _575
REMARK  221  A    between atoms: _575  and  _576
REMARK  222  A    between atoms: _576  and  _577
REMARK  223  A    between atoms: _586  and  _588
REMARK  224  A    between atoms: _588  and  _589
REMARK  225  A    between atoms: _588  and  _591
REMARK  226  A    between atoms: _591  and  _592
REMARK  227  A    between atoms: _597  and  _598
REMARK  228  A    between atoms: _600  and  _602
REMARK  229  A    between atoms: _602  and  _603
REMARK  230  A    between atoms: _602  and  _605
REMARK  231  A    between atoms: _605  and  _606
REMARK  232  A    between atoms: _606  and  _607
REMARK  233  A    between atoms: _610  and  _612
REMARK  234  A    between atoms: _612  and  _613
REMARK  235  A    between atoms: _612  and  _615
REMARK  236  A    between atoms: _615  and  _616
REMARK  237  A    between atoms: _616  and  _617
REMARK  238  A    between atoms: _617  and  _618
REMARK                            x       y       z     vdW  Elec       q    Type
REMARK                         _______ _______ _______ _____ _____    ______ ____
ROOT
ATOM      1  O   HOH     1      26.966  34.538  55.146  0.00  0.00    +0.000 OA
ENDROOT
TORSDOF 0
