REMARK  Name = ../refined-set-2016/3iph/3iph_pocket.pdb
REMARK  234 active torsions:
REMARK  status: ('A' for Active; 'I' for Inactive)
REMARK    1  A    between atoms: _1  and  _3
REMARK    2  A    between atoms: _3  and  _4
REMARK    3  A    between atoms: _3  and  _6
REMARK    4  A    between atoms: _9  and  _11
REMARK    5  A    between atoms: _11  and  _12
REMARK    6  A    between atoms: _14  and  _16
REMARK    7  A    between atoms: _16  and  _17
REMARK    8  A    between atoms: _16  and  _19
REMARK    9  A    between atoms: _19  and  _20
REMARK   10  A    between atoms: _22  and  _24
REMARK   11  A    between atoms: _24  and  _25
REMARK   12  A    between atoms: _27  and  _29
REMARK   13  A    between atoms: _29  and  _30
REMARK   14  A    between atoms: _33  and  _35
REMARK   15  A    between atoms: _35  and  _36
REMARK   16  A    between atoms: _35  and  _38
REMARK   17  A    between atoms: _38  and  _39
REMARK   18  A    between atoms: _44  and  _45
REMARK   19  A    between atoms: _47  and  _49
REMARK   20  A    between atoms: _49  and  _50
REMARK   21  A    between atoms: _49  and  _52
REMARK   22  A    between atoms: _52  and  _53
REMARK   23  A    between atoms: _55  and  _57
REMARK   24  A    between atoms: _57  and  _58
REMARK   25  A    between atoms: _57  and  _60
REMARK   26  A    between atoms: _63  and  _65
REMARK   27  A    between atoms: _65  and  _66
REMARK   28  A    between atoms: _65  and  _68
REMARK   29  A    between atoms: _70  and  _72
REMARK   30  A    between atoms: _72  and  _73
REMARK   31  A    between atoms: _76  and  _78
REMARK   32  A    between atoms: _78  and  _79
REMARK   33  A    between atoms: _78  and  _81
REMARK   34  A    between atoms: _81  and  _82
REMARK   35  A    between atoms: _82  and  _83
REMARK   36  A    between atoms: _83  and  _84
REMARK   37  A    between atoms: _93  and  _95
REMARK   38  A    between atoms: _95  and  _96
REMARK   39  A    between atoms: _95  and  _98
REMARK   40  A    between atoms: _101  and  _103
REMARK   41  A    between atoms: _103  and  _104
REMARK   42  A    between atoms: _107  and  _109
REMARK   43  A    between atoms: _109  and  _110
REMARK   44  A    between atoms: _109  and  _112
REMARK   45  A    between atoms: _115  and  _117
REMARK   46  A    between atoms: _117  and  _118
REMARK   47  A    between atoms: _117  and  _120
REMARK   48  A    between atoms: _120  and  _121
REMARK   49  A    between atoms: _121  and  _122
REMARK   50  A    between atoms: _122  and  _123
REMARK   51  A    between atoms: _123  and  _124
REMARK   52  A    between atoms: _128  and  _130
REMARK   53  A    between atoms: _130  and  _131
REMARK   54  A    between atoms: _130  and  _133
REMARK   55  A    between atoms: _133  and  _134
REMARK   56  A    between atoms: _134  and  _135
REMARK   57  A    between atoms: _135  and  _136
REMARK   58  A    between atoms: _136  and  _137
REMARK   59  A    between atoms: _141  and  _143
REMARK   60  A    between atoms: _143  and  _144
REMARK   61  A    between atoms: _143  and  _146
REMARK   62  A    between atoms: _146  and  _147
REMARK   63  A    between atoms: _150  and  _152
REMARK   64  A    between atoms: _152  and  _153
REMARK   65  A    between atoms: _152  and  _155
REMARK   66  A    between atoms: _155  and  _156
REMARK   67  A    between atoms: _156  and  _157
REMARK   68  A    between atoms: _157  and  _158
REMARK   69  A    between atoms: _167  and  _169
REMARK   70  A    between atoms: _169  and  _170
REMARK   71  A    between atoms: _169  and  _172
REMARK   72  A    between atoms: _172  and  _173
REMARK   73  A    between atoms: _173  and  _174
REMARK   74  A    between atoms: _174  and  _175
REMARK   75  A    between atoms: _184  and  _186
REMARK   76  A    between atoms: _186  and  _187
REMARK   77  A    between atoms: _186  and  _189
REMARK   78  A    between atoms: _189  and  _190
REMARK   79  A    between atoms: _190  and  _191
REMARK   80  A    between atoms: _194  and  _196
REMARK   81  A    between atoms: _196  and  _197
REMARK   82  A    between atoms: _196  and  _199
REMARK   83  A    between atoms: _199  and  _200
REMARK   84  A    between atoms: _203  and  _205
REMARK   85  A    between atoms: _205  and  _206
REMARK   86  A    between atoms: _205  and  _208
REMARK   87  A    between atoms: _208  and  _209
REMARK   88  A    between atoms: _209  and  _210
REMARK   89  A    between atoms: _210  and  _211
REMARK   90  A    between atoms: _220  and  _222
REMARK   91  A    between atoms: _222  and  _223
REMARK   92  A    between atoms: _222  and  _225
REMARK   93  A    between atoms: _225  and  _226
REMARK   94  A    between atoms: _229  and  _231
REMARK   95  A    between atoms: _231  and  _232
REMARK   96  A    between atoms: _231  and  _234
REMARK   97  A    between atoms: _234  and  _235
REMARK   98  A    between atoms: _238  and  _240
REMARK   99  A    between atoms: _240  and  _241
REMARK  100  A    between atoms: _240  and  _243
REMARK  101  A    between atoms: _243  and  _244
REMARK  102  A    between atoms: _244  and  _245
REMARK  103  A    between atoms: _245  and  _246
REMARK  104  A    between atoms: _246  and  _247
REMARK  105  A    between atoms: _251  and  _253
REMARK  106  A    between atoms: _253  and  _254
REMARK  107  A    between atoms: _253  and  _256
REMARK  108  A    between atoms: _256  and  _257
REMARK  109  A    between atoms: _257  and  _258
REMARK  110  A    between atoms: _260  and  _262
REMARK  111  A    between atoms: _262  and  _263
REMARK  112  A    between atoms: _262  and  _265
REMARK  113  A    between atoms: _268  and  _270
REMARK  114  A    between atoms: _270  and  _271
REMARK  115  A    between atoms: _270  and  _273
REMARK  116  A    between atoms: _273  and  _274
REMARK  117  A    between atoms: _277  and  _279
REMARK  118  A    between atoms: _279  and  _280
REMARK  119  A    between atoms: _282  and  _284
REMARK  120  A    between atoms: _284  and  _285
REMARK  121  A    between atoms: _284  and  _287
REMARK  122  A    between atoms: _287  and  _288
REMARK  123  A    between atoms: _291  and  _293
REMARK  124  A    between atoms: _293  and  _294
REMARK  125  A    between atoms: _293  and  _296
REMARK  126  A    between atoms: _296  and  _297
REMARK  127  A    between atoms: _300  and  _302
REMARK  128  A    between atoms: _302  and  _303
REMARK  129  A    between atoms: _302  and  _305
REMARK  130  A    between atoms: _305  and  _306
REMARK  131  A    between atoms: _309  and  _311
REMARK  132  A    between atoms: _311  and  _312
REMARK  133  A    between atoms: _311  and  _314
REMARK  134  A    between atoms: _314  and  _315
REMARK  135  A    between atoms: _320  and  _321
REMARK  136  A    between atoms: _323  and  _325
REMARK  137  A    between atoms: _325  and  _326
REMARK  138  A    between atoms: _325  and  _328
REMARK  139  A    between atoms: _328  and  _329
REMARK  140  A    between atoms: _332  and  _334
REMARK  141  A    between atoms: _334  and  _335
REMARK  142  A    between atoms: _334  and  _337
REMARK  143  A    between atoms: _340  and  _342
REMARK  144  A    between atoms: _342  and  _343
REMARK  145  A    between atoms: _342  and  _345
REMARK  146  A    between atoms: _345  and  _346
REMARK  147  A    between atoms: _349  and  _351
REMARK  148  A    between atoms: _351  and  _352
REMARK  149  A    between atoms: _351  and  _354
REMARK  150  A    between atoms: _354  and  _355
REMARK  151  A    between atoms: _360  and  _362
REMARK  152  A    between atoms: _362  and  _363
REMARK  153  A    between atoms: _362  and  _365
REMARK  154  A    between atoms: _365  and  _366
REMARK  155  A    between atoms: _369  and  _371
REMARK  156  A    between atoms: _371  and  _372
REMARK  157  A    between atoms: _371  and  _374
REMARK  158  A    between atoms: _374  and  _375
REMARK  159  A    between atoms: _375  and  _376
REMARK  160  A    between atoms: _378  and  _380
REMARK  161  A    between atoms: _380  and  _381
REMARK  162  A    between atoms: _383  and  _385
REMARK  163  A    between atoms: _385  and  _386
REMARK  164  A    between atoms: _389  and  _391
REMARK  165  A    between atoms: _391  and  _392
REMARK  166  A    between atoms: _391  and  _394
REMARK  167  A    between atoms: _394  and  _395
REMARK  168  A    between atoms: _398  and  _400
REMARK  169  A    between atoms: _400  and  _401
REMARK  170  A    between atoms: _400  and  _403
REMARK  171  A    between atoms: _403  and  _404
REMARK  172  A    between atoms: _407  and  _409
REMARK  173  A    between atoms: _409  and  _410
REMARK  174  A    between atoms: _409  and  _412
REMARK  175  A    between atoms: _412  and  _413
REMARK  176  A    between atoms: _418  and  _420
REMARK  177  A    between atoms: _420  and  _421
REMARK  178  A    between atoms: _420  and  _423
REMARK  179  A    between atoms: _423  and  _424
REMARK  180  A    between atoms: _429  and  _431
REMARK  181  A    between atoms: _431  and  _432
REMARK  182  A    between atoms: _431  and  _434
REMARK  183  A    between atoms: _434  and  _435
REMARK  184  A    between atoms: _438  and  _440
REMARK  185  A    between atoms: _440  and  _441
REMARK  186  A    between atoms: _440  and  _443
REMARK  187  A    between atoms: _443  and  _444
REMARK  188  A    between atoms: _450  and  _451
REMARK  189  A    between atoms: _456  and  _458
REMARK  190  A    between atoms: _458  and  _459
REMARK  191  A    between atoms: _458  and  _461
REMARK  192  A    between atoms: _461  and  _462
REMARK  193  A    between atoms: _464  and  _466
REMARK  194  A    between atoms: _466  and  _467
REMARK  195  A    between atoms: _466  and  _469
REMARK  196  A    between atoms: _469  and  _470
REMARK  197  A    between atoms: _475  and  _477
REMARK  198  A    between atoms: _477  and  _478
REMARK  199  A    between atoms: _477  and  _480
REMARK  200  A    between atoms: _480  and  _481
REMARK  201  A    between atoms: _484  and  _486
REMARK  202  A    between atoms: _486  and  _487
REMARK  203  A    between atoms: _490  and  _492
REMARK  204  A    between atoms: _492  and  _493
REMARK  205  A    between atoms: _492  and  _495
REMARK  206  A    between atoms: _498  and  _500
REMARK  207  A    between atoms: _500  and  _501
REMARK  208  A    between atoms: _500  and  _503
REMARK  209  A    between atoms: _503  and  _504
REMARK  210  A    between atoms: _504  and  _505
REMARK  211  A    between atoms: _505  and  _506
REMARK  212  A    between atoms: _506  and  _507
REMARK  213  A    between atoms: _511  and  _513
REMARK  214  A    between atoms: _513  and  _514
REMARK  215  A    between atoms: _513  and  _516
REMARK  216  A    between atoms: _516  and  _517
REMARK  217  A    between atoms: _520  and  _522
REMARK  218  A    between atoms: _522  and  _523
REMARK  219  A    between atoms: _522  and  _525
REMARK  220  A    between atoms: _525  and  _526
REMARK  221  A    between atoms: _529  and  _531
REMARK  222  A    between atoms: _531  and  _532
REMARK  223  A    between atoms: _531  and  _534
REMARK  224  A    between atoms: _534  and  _535
REMARK  225  A    between atoms: _538  and  _540
REMARK  226  A    between atoms: _540  and  _541
REMARK  227  A    between atoms: _540  and  _543
REMARK  228  A    between atoms: _543  and  _544
REMARK  229  A    between atoms: _550  and  _552
REMARK  230  A    between atoms: _552  and  _553
REMARK  231  A    between atoms: _555  and  _557
REMARK  232  A    between atoms: _557  and  _558
REMARK  233  A    between atoms: _557  and  _560
REMARK  234  A    between atoms: _560  and  _561
REMARK                            x       y       z     vdW  Elec       q    Type
REMARK                         _______ _______ _______ _____ _____    ______ ____
ROOT
ATOM      1  C   SER A   3      45.425  26.255  27.315  0.00  0.00    +0.243 C 
ATOM      2  O   SER A   3      46.351  26.467  28.094  0.00  0.00    -0.273 OA
ATOM      3  N   GLY A   4      44.146  26.174  27.690  0.00  0.00    -0.295 N 
ATOM      4  H   GLY A   4      43.427  26.056  26.948  0.00  0.00    +0.150 HD
ENDROOT
BRANCH   3   5
ATOM      5  CA  GLY A   4      43.692  26.241  29.078  0.00  0.00    +0.176 C 
BRANCH   5   6
ATOM      6  C   GLY A   4      42.995  24.926  29.412  0.00  0.00    +0.243 C 
ATOM      7  N   ALA A   5      42.286  24.868  30.536  0.00  0.00    -0.297 N 
ATOM      8  H   ALA A   5      42.231  25.701  31.157  0.00  0.00    +0.150 HD
ATOM      9  O   GLY A   4      43.101  23.958  28.654  0.00  0.00    -0.273 OA
BRANCH   7  10
ATOM     10  CA  ALA A   5      41.582  23.638  30.904  0.00  0.00    +0.149 C 
ATOM     11  CB  ALA A   5      41.234  23.616  32.391  0.00  0.00    +0.031 C 
BRANCH  10  12
ATOM     12  C   ALA A   5      40.335  23.392  30.034  0.00  0.00    +0.241 C 
ATOM     13  O   ALA A   5      39.325  24.133  30.097  0.00  0.00    -0.273 OA
ATOM     14  N   TYR A   6      40.452  22.349  29.209  0.00  0.00    -0.298 N 
ATOM     15  H   TYR A   6      41.359  21.840  29.203  0.00  0.00    +0.150 HD
BRANCH  14  16
ATOM     16  CA  TYR A   6      39.398  21.866  28.310  0.00  0.00    +0.141 C 
BRANCH  16  17
ATOM     17  C   TYR A   6      39.116  22.775  27.112  0.00  0.00    +0.227 C 
ATOM     18  O   TYR A   6      38.041  22.701  26.507  0.00  0.00    -0.286 OA
ENDBRANCH  16  17
BRANCH  16  19
ATOM     19  CB  TYR A   6      38.099  21.591  29.075  0.00  0.00    +0.054 C 
BRANCH  19  20
ATOM     20  CG  TYR A   6      38.271  20.762  30.345  0.00  0.00    -0.020 A 
ATOM     21  CD2 TYR A   6      37.786  21.229  31.553  0.00  0.00    -0.001 A 
ATOM     22  CE2 TYR A   6      37.904  20.489  32.714  0.00  0.00    +0.036 A 
ATOM     23  CZ  TYR A   6      38.512  19.241  32.688  0.00  0.00    +0.134 A 
ATOM     24  CE1 TYR A   6      39.018  18.728  31.495  0.00  0.00    +0.036 A 
ATOM     25  CD1 TYR A   6      38.877  19.498  30.318  0.00  0.00    -0.001 A 
BRANCH  23  26
ATOM     26  OH  TYR A   6      38.606  18.533  33.860  0.00  0.00    -0.506 OA
ATOM     27  HH  TYR A   6      37.698  18.365  34.216  0.00  0.00    +0.292 HD
ENDBRANCH  23  26
ENDBRANCH  19  20
ENDBRANCH  16  19
ENDBRANCH  14  16
ENDBRANCH  10  12
ENDBRANCH   7  10
ENDBRANCH   5   6
ENDBRANCH   3   5
BRANCH   1  28
ATOM     28  CA  SER A   3      45.696  26.039  25.820  0.00  0.00    +0.178 C 
BRANCH  28  31
ATOM     29  C   GLY A   2      47.169  28.027  25.763  0.00  0.00    +0.243 C 
ATOM     30  O   GLY A   2      46.862  28.415  26.896  0.00  0.00    -0.273 OA
ATOM     31  N   SER A   3      46.713  26.900  25.217  0.00  0.00    -0.295 N 
ATOM     32  H   SER A   3      47.108  26.613  24.299  0.00  0.00    +0.150 HD
BRANCH  29  33
ATOM     33  CA  GLY A   2      48.148  28.807  24.900  0.00  0.00    +0.176 C 
BRANCH  33  36
ATOM     34  C   VAL A   1      48.136  31.213  24.984  0.00  0.00    +0.238 C 
ATOM     35  O   VAL A   1      48.927  31.175  25.935  0.00  0.00    -0.274 OA
ATOM     36  N   GLY A   2      47.661  30.106  24.427  0.00  0.00    -0.296 N 
ATOM     37  H   GLY A   2      46.954  30.159  23.666  0.00  0.00    +0.150 HD
BRANCH  34  38
ATOM     38  CA  VAL A   1      47.678  32.558  24.410  0.00  0.00    +0.145 C 
BRANCH  38  39
ATOM     39  CB  VAL A   1      47.078  33.411  25.547  0.00  0.00    +0.025 C 
ATOM     40  CG2 VAL A   1      45.631  33.014  25.797  0.00  0.00    +0.002 C 
ATOM     41  CG1 VAL A   1      47.223  34.922  25.241  0.00  0.00    +0.002 C 
ENDBRANCH  38  39
BRANCH  38  42
ATOM     42  N   VAL A   1      46.770  32.461  23.262  0.00  0.00    -0.238 NA
ATOM     43  H   VAL A   1      45.889  31.914  23.348  0.00  0.00    +0.142 HD
ENDBRANCH  38  42
ENDBRANCH  34  38
ENDBRANCH  33  36
ENDBRANCH  29  33
ENDBRANCH  28  31
BRANCH  28  44
ATOM     44  CB  SER A   3      46.090  24.589  25.610  0.00  0.00    +0.166 C 
BRANCH  44  45
ATOM     45  OG  SER A   3      47.017  24.234  26.609  0.00  0.00    -0.380 OA
ATOM     46  H   SER A   3      46.600  24.348  27.500  0.00  0.00    +0.211 HD
ENDBRANCH  44  45
ENDBRANCH  28  44
ENDBRANCH   1  28
TORSDOF 18
REMARK  Name = ../refined-set-2016/3iph/3iph_pocket.pdb
REMARK  234 active torsions:
REMARK  status: ('A' for Active; 'I' for Inactive)
REMARK    1  A    between atoms: _1  and  _3
REMARK    2  A    between atoms: _3  and  _4
REMARK    3  A    between atoms: _3  and  _6
REMARK    4  A    between atoms: _9  and  _11
REMARK    5  A    between atoms: _11  and  _12
REMARK    6  A    between atoms: _14  and  _16
REMARK    7  A    between atoms: _16  and  _17
REMARK    8  A    between atoms: _16  and  _19
REMARK    9  A    between atoms: _19  and  _20
REMARK   10  A    between atoms: _22  and  _24
REMARK   11  A    between atoms: _24  and  _25
REMARK   12  A    between atoms: _27  and  _29
REMARK   13  A    between atoms: _29  and  _30
REMARK   14  A    between atoms: _33  and  _35
REMARK   15  A    between atoms: _35  and  _36
REMARK   16  A    between atoms: _35  and  _38
REMARK   17  A    between atoms: _38  and  _39
REMARK   18  A    between atoms: _44  and  _45
REMARK   19  A    between atoms: _47  and  _49
REMARK   20  A    between atoms: _49  and  _50
REMARK   21  A    between atoms: _49  and  _52
REMARK   22  A    between atoms: _52  and  _53
REMARK   23  A    between atoms: _55  and  _57
REMARK   24  A    between atoms: _57  and  _58
REMARK   25  A    between atoms: _57  and  _60
REMARK   26  A    between atoms: _63  and  _65
REMARK   27  A    between atoms: _65  and  _66
REMARK   28  A    between atoms: _65  and  _68
REMARK   29  A    between atoms: _70  and  _72
REMARK   30  A    between atoms: _72  and  _73
REMARK   31  A    between atoms: _76  and  _78
REMARK   32  A    between atoms: _78  and  _79
REMARK   33  A    between atoms: _78  and  _81
REMARK   34  A    between atoms: _81  and  _82
REMARK   35  A    between atoms: _82  and  _83
REMARK   36  A    between atoms: _83  and  _84
REMARK   37  A    between atoms: _93  and  _95
REMARK   38  A    between atoms: _95  and  _96
REMARK   39  A    between atoms: _95  and  _98
REMARK   40  A    between atoms: _101  and  _103
REMARK   41  A    between atoms: _103  and  _104
REMARK   42  A    between atoms: _107  and  _109
REMARK   43  A    between atoms: _109  and  _110
REMARK   44  A    between atoms: _109  and  _112
REMARK   45  A    between atoms: _115  and  _117
REMARK   46  A    between atoms: _117  and  _118
REMARK   47  A    between atoms: _117  and  _120
REMARK   48  A    between atoms: _120  and  _121
REMARK   49  A    between atoms: _121  and  _122
REMARK   50  A    between atoms: _122  and  _123
REMARK   51  A    between atoms: _123  and  _124
REMARK   52  A    between atoms: _128  and  _130
REMARK   53  A    between atoms: _130  and  _131
REMARK   54  A    between atoms: _130  and  _133
REMARK   55  A    between atoms: _133  and  _134
REMARK   56  A    between atoms: _134  and  _135
REMARK   57  A    between atoms: _135  and  _136
REMARK   58  A    between atoms: _136  and  _137
REMARK   59  A    between atoms: _141  and  _143
REMARK   60  A    between atoms: _143  and  _144
REMARK   61  A    between atoms: _143  and  _146
REMARK   62  A    between atoms: _146  and  _147
REMARK   63  A    between atoms: _150  and  _152
REMARK   64  A    between atoms: _152  and  _153
REMARK   65  A    between atoms: _152  and  _155
REMARK   66  A    between atoms: _155  and  _156
REMARK   67  A    between atoms: _156  and  _157
REMARK   68  A    between atoms: _157  and  _158
REMARK   69  A    between atoms: _167  and  _169
REMARK   70  A    between atoms: _169  and  _170
REMARK   71  A    between atoms: _169  and  _172
REMARK   72  A    between atoms: _172  and  _173
REMARK   73  A    between atoms: _173  and  _174
REMARK   74  A    between atoms: _174  and  _175
REMARK   75  A    between atoms: _184  and  _186
REMARK   76  A    between atoms: _186  and  _187
REMARK   77  A    between atoms: _186  and  _189
REMARK   78  A    between atoms: _189  and  _190
REMARK   79  A    between atoms: _190  and  _191
REMARK   80  A    between atoms: _194  and  _196
REMARK   81  A    between atoms: _196  and  _197
REMARK   82  A    between atoms: _196  and  _199
REMARK   83  A    between atoms: _199  and  _200
REMARK   84  A    between atoms: _203  and  _205
REMARK   85  A    between atoms: _205  and  _206
REMARK   86  A    between atoms: _205  and  _208
REMARK   87  A    between atoms: _208  and  _209
REMARK   88  A    between atoms: _209  and  _210
REMARK   89  A    between atoms: _210  and  _211
REMARK   90  A    between atoms: _220  and  _222
REMARK   91  A    between atoms: _222  and  _223
REMARK   92  A    between atoms: _222  and  _225
REMARK   93  A    between atoms: _225  and  _226
REMARK   94  A    between atoms: _229  and  _231
REMARK   95  A    between atoms: _231  and  _232
REMARK   96  A    between atoms: _231  and  _234
REMARK   97  A    between atoms: _234  and  _235
REMARK   98  A    between atoms: _238  and  _240
REMARK   99  A    between atoms: _240  and  _241
REMARK  100  A    between atoms: _240  and  _243
REMARK  101  A    between atoms: _243  and  _244
REMARK  102  A    between atoms: _244  and  _245
REMARK  103  A    between atoms: _245  and  _246
REMARK  104  A    between atoms: _246  and  _247
REMARK  105  A    between atoms: _251  and  _253
REMARK  106  A    between atoms: _253  and  _254
REMARK  107  A    between atoms: _253  and  _256
REMARK  108  A    between atoms: _256  and  _257
REMARK  109  A    between atoms: _257  and  _258
REMARK  110  A    between atoms: _260  and  _262
REMARK  111  A    between atoms: _262  and  _263
REMARK  112  A    between atoms: _262  and  _265
REMARK  113  A    between atoms: _268  and  _270
REMARK  114  A    between atoms: _270  and  _271
REMARK  115  A    between atoms: _270  and  _273
REMARK  116  A    between atoms: _273  and  _274
REMARK  117  A    between atoms: _277  and  _279
REMARK  118  A    between atoms: _279  and  _280
REMARK  119  A    between atoms: _282  and  _284
REMARK  120  A    between atoms: _284  and  _285
REMARK  121  A    between atoms: _284  and  _287
REMARK  122  A    between atoms: _287  and  _288
REMARK  123  A    between atoms: _291  and  _293
REMARK  124  A    between atoms: _293  and  _294
REMARK  125  A    between atoms: _293  and  _296
REMARK  126  A    between atoms: _296  and  _297
REMARK  127  A    between atoms: _300  and  _302
REMARK  128  A    between atoms: _302  and  _303
REMARK  129  A    between atoms: _302  and  _305
REMARK  130  A    between atoms: _305  and  _306
REMARK  131  A    between atoms: _309  and  _311
REMARK  132  A    between atoms: _311  and  _312
REMARK  133  A    between atoms: _311  and  _314
REMARK  134  A    between atoms: _314  and  _315
REMARK  135  A    between atoms: _320  and  _321
REMARK  136  A    between atoms: _323  and  _325
REMARK  137  A    between atoms: _325  and  _326
REMARK  138  A    between atoms: _325  and  _328
REMARK  139  A    between atoms: _328  and  _329
REMARK  140  A    between atoms: _332  and  _334
REMARK  141  A    between atoms: _334  and  _335
REMARK  142  A    between atoms: _334  and  _337
REMARK  143  A    between atoms: _340  and  _342
REMARK  144  A    between atoms: _342  and  _343
REMARK  145  A    between atoms: _342  and  _345
REMARK  146  A    between atoms: _345  and  _346
REMARK  147  A    between atoms: _349  and  _351
REMARK  148  A    between atoms: _351  and  _352
REMARK  149  A    between atoms: _351  and  _354
REMARK  150  A    between atoms: _354  and  _355
REMARK  151  A    between atoms: _360  and  _362
REMARK  152  A    between atoms: _362  and  _363
REMARK  153  A    between atoms: _362  and  _365
REMARK  154  A    between atoms: _365  and  _366
REMARK  155  A    between atoms: _369  and  _371
REMARK  156  A    between atoms: _371  and  _372
REMARK  157  A    between atoms: _371  and  _374
REMARK  158  A    between atoms: _374  and  _375
REMARK  159  A    between atoms: _375  and  _376
REMARK  160  A    between atoms: _378  and  _380
REMARK  161  A    between atoms: _380  and  _381
REMARK  162  A    between atoms: _383  and  _385
REMARK  163  A    between atoms: _385  and  _386
REMARK  164  A    between atoms: _389  and  _391
REMARK  165  A    between atoms: _391  and  _392
REMARK  166  A    between atoms: _391  and  _394
REMARK  167  A    between atoms: _394  and  _395
REMARK  168  A    between atoms: _398  and  _400
REMARK  169  A    between atoms: _400  and  _401
REMARK  170  A    between atoms: _400  and  _403
REMARK  171  A    between atoms: _403  and  _404
REMARK  172  A    between atoms: _407  and  _409
REMARK  173  A    between atoms: _409  and  _410
REMARK  174  A    between atoms: _409  and  _412
REMARK  175  A    between atoms: _412  and  _413
REMARK  176  A    between atoms: _418  and  _420
REMARK  177  A    between atoms: _420  and  _421
REMARK  178  A    between atoms: _420  and  _423
REMARK  179  A    between atoms: _423  and  _424
REMARK  180  A    between atoms: _429  and  _431
REMARK  181  A    between atoms: _431  and  _432
REMARK  182  A    between atoms: _431  and  _434
REMARK  183  A    between atoms: _434  and  _435
REMARK  184  A    between atoms: _438  and  _440
REMARK  185  A    between atoms: _440  and  _441
REMARK  186  A    between atoms: _440  and  _443
REMARK  187  A    between atoms: _443  and  _444
REMARK  188  A    between atoms: _450  and  _451
REMARK  189  A    between atoms: _456  and  _458
REMARK  190  A    between atoms: _458  and  _459
REMARK  191  A    between atoms: _458  and  _461
REMARK  192  A    between atoms: _461  and  _462
REMARK  193  A    between atoms: _464  and  _466
REMARK  194  A    between atoms: _466  and  _467
REMARK  195  A    between atoms: _466  and  _469
REMARK  196  A    between atoms: _469  and  _470
REMARK  197  A    between atoms: _475  and  _477
REMARK  198  A    between atoms: _477  and  _478
REMARK  199  A    between atoms: _477  and  _480
REMARK  200  A    between atoms: _480  and  _481
REMARK  201  A    between atoms: _484  and  _486
REMARK  202  A    between atoms: _486  and  _487
REMARK  203  A    between atoms: _490  and  _492
REMARK  204  A    between atoms: _492  and  _493
REMARK  205  A    between atoms: _492  and  _495
REMARK  206  A    between atoms: _498  and  _500
REMARK  207  A    between atoms: _500  and  _501
REMARK  208  A    between atoms: _500  and  _503
REMARK  209  A    between atoms: _503  and  _504
REMARK  210  A    between atoms: _504  and  _505
REMARK  211  A    between atoms: _505  and  _506
REMARK  212  A    between atoms: _506  and  _507
REMARK  213  A    between atoms: _511  and  _513
REMARK  214  A    between atoms: _513  and  _514
REMARK  215  A    between atoms: _513  and  _516
REMARK  216  A    between atoms: _516  and  _517
REMARK  217  A    between atoms: _520  and  _522
REMARK  218  A    between atoms: _522  and  _523
REMARK  219  A    between atoms: _522  and  _525
REMARK  220  A    between atoms: _525  and  _526
REMARK  221  A    between atoms: _529  and  _531
REMARK  222  A    between atoms: _531  and  _532
REMARK  223  A    between atoms: _531  and  _534
REMARK  224  A    between atoms: _534  and  _535
REMARK  225  A    between atoms: _538  and  _540
REMARK  226  A    between atoms: _540  and  _541
REMARK  227  A    between atoms: _540  and  _543
REMARK  228  A    between atoms: _543  and  _544
REMARK  229  A    between atoms: _550  and  _552
REMARK  230  A    between atoms: _552  and  _553
REMARK  231  A    between atoms: _555  and  _557
REMARK  232  A    between atoms: _557  and  _558
REMARK  233  A    between atoms: _557  and  _560
REMARK  234  A    between atoms: _560  and  _561
REMARK                            x       y       z     vdW  Elec       q    Type
REMARK                         _______ _______ _______ _____ _____    ______ ____
ROOT
ATOM      1  C   VAL A   2      43.104  31.664  24.336  0.00  0.00    +0.241 C 
ATOM      2  N   CYS A   3      42.405  32.783  24.126  0.00  0.00    -0.296 N 
ATOM      3  H   CYS A   3      41.427  32.829  24.477  0.00  0.00    +0.150 HD
ATOM      4  O   VAL A   2      44.207  31.453  23.827  0.00  0.00    -0.273 OA
ENDROOT
BRANCH   1   5
ATOM      5  CA  VAL A   2      42.451  30.595  25.224  0.00  0.00    +0.148 C 
BRANCH   5   7
ATOM      6  C   SER A   1      41.759  28.411  24.366  0.00  0.00    +0.241 C 
ATOM      7  N   VAL A   2      42.725  29.255  24.707  0.00  0.00    -0.297 N 
ATOM      8  H   VAL A   2      43.714  28.952  24.602  0.00  0.00    +0.150 HD
ATOM      9  O   SER A   1      40.572  28.716  24.394  0.00  0.00    -0.274 OA
BRANCH   6  10
ATOM     10  CA  SER A   1      42.194  26.996  23.972  0.00  0.00    +0.174 C 
BRANCH  10  11
ATOM     11  N   SER A   1      41.101  26.090  24.272  0.00  0.00    -0.236 NA
ATOM     12  H   SER A   1      40.300  26.013  23.613  0.00  0.00    +0.142 HD
ENDBRANCH  10  11
BRANCH  10  13
ATOM     13  CB  SER A   1      42.561  26.889  22.500  0.00  0.00    +0.163 C 
BRANCH  13  14
ATOM     14  OG  SER A   1      41.389  27.053  21.742  0.00  0.00    -0.380 OA
ATOM     15  H   SER A   1      40.740  26.346  21.983  0.00  0.00    +0.211 HD
ENDBRANCH  13  14
ENDBRANCH  10  13
ENDBRANCH   6  10
ENDBRANCH   5   7
BRANCH   5  16
ATOM     16  CB  VAL A   2      43.015  30.699  26.652  0.00  0.00    +0.027 C 
ATOM     17  CG2 VAL A   2      42.484  29.532  27.508  0.00  0.00    +0.002 C 
ATOM     18  CG1 VAL A   2      42.662  32.024  27.298  0.00  0.00    +0.002 C 
ENDBRANCH   5  16
ENDBRANCH   1   5
BRANCH   2  19
ATOM     19  CA  CYS A   3      42.951  33.948  23.425  0.00  0.00    +0.160 C 
BRANCH  19  20
ATOM     20  C   CYS A   3      42.930  35.176  24.315  0.00  0.00    +0.242 C 
ATOM     21  O   CYS A   3      42.004  35.363  25.089  0.00  0.00    -0.273 OA
ATOM     22  N   ALA A   4      43.940  36.026  24.225  0.00  0.00    -0.298 N 
ATOM     23  H   ALA A   4      44.775  35.799  23.648  0.00  0.00    +0.150 HD
BRANCH  22  24
ATOM     24  CA  ALA A   4      43.860  37.281  24.947  0.00  0.00    +0.137 C 
ATOM     25  CB  ALA A   4      45.227  37.870  25.089  0.00  0.00    +0.030 C 
BRANCH  24  26
ATOM     26  C   ALA A   4      43.003  38.155  24.032  0.00  0.00    +0.227 C 
ATOM     27  O   ALA A   4      42.971  37.911  22.822  0.00  0.00    -0.286 OA
ENDBRANCH  24  26
ENDBRANCH  22  24
ENDBRANCH  19  20
BRANCH  19  28
ATOM     28  CB  CYS A   3      42.108  34.286  22.204  0.00  0.00    +0.098 C 
ATOM     29  SG  CYS A   3      42.283  33.140  20.866  0.00  0.00    -0.080 S 
ENDBRANCH  19  28
ENDBRANCH   2  19
TORSDOF 12
REMARK  Name = ../refined-set-2016/3iph/3iph_pocket.pdb
REMARK  234 active torsions:
REMARK  status: ('A' for Active; 'I' for Inactive)
REMARK    1  A    between atoms: _1  and  _3
REMARK    2  A    between atoms: _3  and  _4
REMARK    3  A    between atoms: _3  and  _6
REMARK    4  A    between atoms: _9  and  _11
REMARK    5  A    between atoms: _11  and  _12
REMARK    6  A    between atoms: _14  and  _16
REMARK    7  A    between atoms: _16  and  _17
REMARK    8  A    between atoms: _16  and  _19
REMARK    9  A    between atoms: _19  and  _20
REMARK   10  A    between atoms: _22  and  _24
REMARK   11  A    between atoms: _24  and  _25
REMARK   12  A    between atoms: _27  and  _29
REMARK   13  A    between atoms: _29  and  _30
REMARK   14  A    between atoms: _33  and  _35
REMARK   15  A    between atoms: _35  and  _36
REMARK   16  A    between atoms: _35  and  _38
REMARK   17  A    between atoms: _38  and  _39
REMARK   18  A    between atoms: _44  and  _45
REMARK   19  A    between atoms: _47  and  _49
REMARK   20  A    between atoms: _49  and  _50
REMARK   21  A    between atoms: _49  and  _52
REMARK   22  A    between atoms: _52  and  _53
REMARK   23  A    between atoms: _55  and  _57
REMARK   24  A    between atoms: _57  and  _58
REMARK   25  A    between atoms: _57  and  _60
REMARK   26  A    between atoms: _63  and  _65
REMARK   27  A    between atoms: _65  and  _66
REMARK   28  A    between atoms: _65  and  _68
REMARK   29  A    between atoms: _70  and  _72
REMARK   30  A    between atoms: _72  and  _73
REMARK   31  A    between atoms: _76  and  _78
REMARK   32  A    between atoms: _78  and  _79
REMARK   33  A    between atoms: _78  and  _81
REMARK   34  A    between atoms: _81  and  _82
REMARK   35  A    between atoms: _82  and  _83
REMARK   36  A    between atoms: _83  and  _84
REMARK   37  A    between atoms: _93  and  _95
REMARK   38  A    between atoms: _95  and  _96
REMARK   39  A    between atoms: _95  and  _98
REMARK   40  A    between atoms: _101  and  _103
REMARK   41  A    between atoms: _103  and  _104
REMARK   42  A    between atoms: _107  and  _109
REMARK   43  A    between atoms: _109  and  _110
REMARK   44  A    between atoms: _109  and  _112
REMARK   45  A    between atoms: _115  and  _117
REMARK   46  A    between atoms: _117  and  _118
REMARK   47  A    between atoms: _117  and  _120
REMARK   48  A    between atoms: _120  and  _121
REMARK   49  A    between atoms: _121  and  _122
REMARK   50  A    between atoms: _122  and  _123
REMARK   51  A    between atoms: _123  and  _124
REMARK   52  A    between atoms: _128  and  _130
REMARK   53  A    between atoms: _130  and  _131
REMARK   54  A    between atoms: _130  and  _133
REMARK   55  A    between atoms: _133  and  _134
REMARK   56  A    between atoms: _134  and  _135
REMARK   57  A    between atoms: _135  and  _136
REMARK   58  A    between atoms: _136  and  _137
REMARK   59  A    between atoms: _141  and  _143
REMARK   60  A    between atoms: _143  and  _144
REMARK   61  A    between atoms: _143  and  _146
REMARK   62  A    between atoms: _146  and  _147
REMARK   63  A    between atoms: _150  and  _152
REMARK   64  A    between atoms: _152  and  _153
REMARK   65  A    between atoms: _152  and  _155
REMARK   66  A    between atoms: _155  and  _156
REMARK   67  A    between atoms: _156  and  _157
REMARK   68  A    between atoms: _157  and  _158
REMARK   69  A    between atoms: _167  and  _169
REMARK   70  A    between atoms: _169  and  _170
REMARK   71  A    between atoms: _169  and  _172
REMARK   72  A    between atoms: _172  and  _173
REMARK   73  A    between atoms: _173  and  _174
REMARK   74  A    between atoms: _174  and  _175
REMARK   75  A    between atoms: _184  and  _186
REMARK   76  A    between atoms: _186  and  _187
REMARK   77  A    between atoms: _186  and  _189
REMARK   78  A    between atoms: _189  and  _190
REMARK   79  A    between atoms: _190  and  _191
REMARK   80  A    between atoms: _194  and  _196
REMARK   81  A    between atoms: _196  and  _197
REMARK   82  A    between atoms: _196  and  _199
REMARK   83  A    between atoms: _199  and  _200
REMARK   84  A    between atoms: _203  and  _205
REMARK   85  A    between atoms: _205  and  _206
REMARK   86  A    between atoms: _205  and  _208
REMARK   87  A    between atoms: _208  and  _209
REMARK   88  A    between atoms: _209  and  _210
REMARK   89  A    between atoms: _210  and  _211
REMARK   90  A    between atoms: _220  and  _222
REMARK   91  A    between atoms: _222  and  _223
REMARK   92  A    between atoms: _222  and  _225
REMARK   93  A    between atoms: _225  and  _226
REMARK   94  A    between atoms: _229  and  _231
REMARK   95  A    between atoms: _231  and  _232
REMARK   96  A    between atoms: _231  and  _234
REMARK   97  A    between atoms: _234  and  _235
REMARK   98  A    between atoms: _238  and  _240
REMARK   99  A    between atoms: _240  and  _241
REMARK  100  A    between atoms: _240  and  _243
REMARK  101  A    between atoms: _243  and  _244
REMARK  102  A    between atoms: _244  and  _245
REMARK  103  A    between atoms: _245  and  _246
REMARK  104  A    between atoms: _246  and  _247
REMARK  105  A    between atoms: _251  and  _253
REMARK  106  A    between atoms: _253  and  _254
REMARK  107  A    between atoms: _253  and  _256
REMARK  108  A    between atoms: _256  and  _257
REMARK  109  A    between atoms: _257  and  _258
REMARK  110  A    between atoms: _260  and  _262
REMARK  111  A    between atoms: _262  and  _263
REMARK  112  A    between atoms: _262  and  _265
REMARK  113  A    between atoms: _268  and  _270
REMARK  114  A    between atoms: _270  and  _271
REMARK  115  A    between atoms: _270  and  _273
REMARK  116  A    between atoms: _273  and  _274
REMARK  117  A    between atoms: _277  and  _279
REMARK  118  A    between atoms: _279  and  _280
REMARK  119  A    between atoms: _282  and  _284
REMARK  120  A    between atoms: _284  and  _285
REMARK  121  A    between atoms: _284  and  _287
REMARK  122  A    between atoms: _287  and  _288
REMARK  123  A    between atoms: _291  and  _293
REMARK  124  A    between atoms: _293  and  _294
REMARK  125  A    between atoms: _293  and  _296
REMARK  126  A    between atoms: _296  and  _297
REMARK  127  A    between atoms: _300  and  _302
REMARK  128  A    between atoms: _302  and  _303
REMARK  129  A    between atoms: _302  and  _305
REMARK  130  A    between atoms: _305  and  _306
REMARK  131  A    between atoms: _309  and  _311
REMARK  132  A    between atoms: _311  and  _312
REMARK  133  A    between atoms: _311  and  _314
REMARK  134  A    between atoms: _314  and  _315
REMARK  135  A    between atoms: _320  and  _321
REMARK  136  A    between atoms: _323  and  _325
REMARK  137  A    between atoms: _325  and  _326
REMARK  138  A    between atoms: _325  and  _328
REMARK  139  A    between atoms: _328  and  _329
REMARK  140  A    between atoms: _332  and  _334
REMARK  141  A    between atoms: _334  and  _335
REMARK  142  A    between atoms: _334  and  _337
REMARK  143  A    between atoms: _340  and  _342
REMARK  144  A    between atoms: _342  and  _343
REMARK  145  A    between atoms: _342  and  _345
REMARK  146  A    between atoms: _345  and  _346
REMARK  147  A    between atoms: _349  and  _351
REMARK  148  A    between atoms: _351  and  _352
REMARK  149  A    between atoms: _351  and  _354
REMARK  150  A    between atoms: _354  and  _355
REMARK  151  A    between atoms: _360  and  _362
REMARK  152  A    between atoms: _362  and  _363
REMARK  153  A    between atoms: _362  and  _365
REMARK  154  A    between atoms: _365  and  _366
REMARK  155  A    between atoms: _369  and  _371
REMARK  156  A    between atoms: _371  and  _372
REMARK  157  A    between atoms: _371  and  _374
REMARK  158  A    between atoms: _374  and  _375
REMARK  159  A    between atoms: _375  and  _376
REMARK  160  A    between atoms: _378  and  _380
REMARK  161  A    between atoms: _380  and  _381
REMARK  162  A    between atoms: _383  and  _385
REMARK  163  A    between atoms: _385  and  _386
REMARK  164  A    between atoms: _389  and  _391
REMARK  165  A    between atoms: _391  and  _392
REMARK  166  A    between atoms: _391  and  _394
REMARK  167  A    between atoms: _394  and  _395
REMARK  168  A    between atoms: _398  and  _400
REMARK  169  A    between atoms: _400  and  _401
REMARK  170  A    between atoms: _400  and  _403
REMARK  171  A    between atoms: _403  and  _404
REMARK  172  A    between atoms: _407  and  _409
REMARK  173  A    between atoms: _409  and  _410
REMARK  174  A    between atoms: _409  and  _412
REMARK  175  A    between atoms: _412  and  _413
REMARK  176  A    between atoms: _418  and  _420
REMARK  177  A    between atoms: _420  and  _421
REMARK  178  A    between atoms: _420  and  _423
REMARK  179  A    between atoms: _423  and  _424
REMARK  180  A    between atoms: _429  and  _431
REMARK  181  A    between atoms: _431  and  _432
REMARK  182  A    between atoms: _431  and  _434
REMARK  183  A    between atoms: _434  and  _435
REMARK  184  A    between atoms: _438  and  _440
REMARK  185  A    between atoms: _440  and  _441
REMARK  186  A    between atoms: _440  and  _443
REMARK  187  A    between atoms: _443  and  _444
REMARK  188  A    between atoms: _450  and  _451
REMARK  189  A    between atoms: _456  and  _458
REMARK  190  A    between atoms: _458  and  _459
REMARK  191  A    between atoms: _458  and  _461
REMARK  192  A    between atoms: _461  and  _462
REMARK  193  A    between atoms: _464  and  _466
REMARK  194  A    between atoms: _466  and  _467
REMARK  195  A    between atoms: _466  and  _469
REMARK  196  A    between atoms: _469  and  _470
REMARK  197  A    between atoms: _475  and  _477
REMARK  198  A    between atoms: _477  and  _478
REMARK  199  A    between atoms: _477  and  _480
REMARK  200  A    between atoms: _480  and  _481
REMARK  201  A    between atoms: _484  and  _486
REMARK  202  A    between atoms: _486  and  _487
REMARK  203  A    between atoms: _490  and  _492
REMARK  204  A    between atoms: _492  and  _493
REMARK  205  A    between atoms: _492  and  _495
REMARK  206  A    between atoms: _498  and  _500
REMARK  207  A    between atoms: _500  and  _501
REMARK  208  A    between atoms: _500  and  _503
REMARK  209  A    between atoms: _503  and  _504
REMARK  210  A    between atoms: _504  and  _505
REMARK  211  A    between atoms: _505  and  _506
REMARK  212  A    between atoms: _506  and  _507
REMARK  213  A    between atoms: _511  and  _513
REMARK  214  A    between atoms: _513  and  _514
REMARK  215  A    between atoms: _513  and  _516
REMARK  216  A    between atoms: _516  and  _517
REMARK  217  A    between atoms: _520  and  _522
REMARK  218  A    between atoms: _522  and  _523
REMARK  219  A    between atoms: _522  and  _525
REMARK  220  A    between atoms: _525  and  _526
REMARK  221  A    between atoms: _529  and  _531
REMARK  222  A    between atoms: _531  and  _532
REMARK  223  A    between atoms: _531  and  _534
REMARK  224  A    between atoms: _534  and  _535
REMARK  225  A    between atoms: _538  and  _540
REMARK  226  A    between atoms: _540  and  _541
REMARK  227  A    between atoms: _540  and  _543
REMARK  228  A    between atoms: _543  and  _544
REMARK  229  A    between atoms: _550  and  _552
REMARK  230  A    between atoms: _552  and  _553
REMARK  231  A    between atoms: _555  and  _557
REMARK  232  A    between atoms: _557  and  _558
REMARK  233  A    between atoms: _557  and  _560
REMARK  234  A    between atoms: _560  and  _561
REMARK                            x       y       z     vdW  Elec       q    Type
REMARK                         _______ _______ _______ _____ _____    ______ ____
ROOT
ATOM      1  CA  VAL A   4      38.607  34.162  26.317  0.00  0.00    +0.149 C 
ENDROOT
BRANCH   1   2
ATOM      2  C   VAL A   4      38.894  32.692  26.032  0.00  0.00    +0.241 C 
ATOM      3  N   LYS A   5      38.203  31.805  26.755  0.00  0.00    -0.297 N 
ATOM      4  H   LYS A   5      37.526  32.148  27.466  0.00  0.00    +0.150 HD
ATOM      5  O   VAL A   4      39.731  32.380  25.179  0.00  0.00    -0.273 OA
BRANCH   3   6
ATOM      6  CA  LYS A   5      38.373  30.388  26.574  0.00  0.00    +0.149 C 
BRANCH   6   7
ATOM      7  C   LYS A   5      37.212  29.777  25.814  0.00  0.00    +0.241 C 
ATOM      8  O   LYS A   5      36.052  29.861  26.229  0.00  0.00    -0.273 OA
ATOM      9  N   LYS A   6      37.539  29.073  24.747  0.00  0.00    -0.297 N 
ATOM     10  H   LYS A   6      38.537  29.007  24.463  0.00  0.00    +0.150 HD
BRANCH   9  11
ATOM     11  CA  LYS A   6      36.541  28.399  23.975  0.00  0.00    +0.149 C 
BRANCH  11  12
ATOM     12  C   LYS A   6      36.634  26.935  24.354  0.00  0.00    +0.241 C 
ATOM     13  N   LEU A   7      35.562  26.381  24.907  0.00  0.00    -0.298 N 
ATOM     14  H   LEU A   7      34.694  26.938  25.043  0.00  0.00    +0.150 HD
ATOM     15  O   LYS A   6      37.676  26.308  24.144  0.00  0.00    -0.273 OA
BRANCH  13  16
ATOM     16  CA  LEU A   7      35.612  25.017  25.312  0.00  0.00    +0.137 C 
BRANCH  16  17
ATOM     17  C   LEU A   7      35.565  24.183  24.044  0.00  0.00    +0.227 C 
ATOM     18  O   LEU A   7      34.753  24.444  23.140  0.00  0.00    -0.286 OA
ENDBRANCH  16  17
BRANCH  16  19
ATOM     19  CB  LEU A   7      34.477  24.670  26.284  0.00  0.00    +0.028 C 
BRANCH  19  20
ATOM     20  CG  LEU A   7      34.568  25.354  27.662  0.00  0.00    +0.002 C 
ATOM     21  CD2 LEU A   7      33.441  24.895  28.602  0.00  0.00    +0.000 C 
ATOM     22  CD1 LEU A   7      35.948  25.154  28.319  0.00  0.00    +0.000 C 
ENDBRANCH  19  20
ENDBRANCH  16  19
ENDBRANCH  13  16
ENDBRANCH  11  12
BRANCH  11  23
ATOM     23  CB  LYS A   6      36.843  28.556  22.487  0.00  0.00    +0.029 C 
BRANCH  23  24
ATOM     24  CG  LYS A   6      35.708  28.005  21.634  0.00  0.00    +0.000 C 
BRANCH  24  25
ATOM     25  CD  LYS A   6      36.101  27.847  20.184  0.00  0.00    -0.024 C 
BRANCH  25  26
ATOM     26  CE  LYS A   6      34.987  27.151  19.417  0.00  0.00    -0.086 C 
BRANCH  26  27
ATOM     27  NZ  LYS A   6      35.275  27.221  17.979  0.00  0.00    +0.380 N 
ATOM     28  HZ1 LYS A   6      36.181  26.749  17.785  0.00  0.00    -0.089 HD
ATOM     29  HZ2 LYS A   6      35.332  28.217  17.686  0.00  0.00    -0.089 HD
ATOM     30  HZ3 LYS A   6      34.515  26.746  17.451  0.00  0.00    -0.089 HD
ENDBRANCH  26  27
ENDBRANCH  25  26
ENDBRANCH  24  25
ENDBRANCH  23  24
ENDBRANCH  11  23
ENDBRANCH   9  11
ENDBRANCH   6   7
BRANCH   6  31
ATOM     31  CB  LYS A   5      38.506  29.627  27.916  0.00  0.00    +0.029 C 
BRANCH  31  32
ATOM     32  CG  LYS A   5      39.223  28.303  27.718  0.00  0.00    +0.000 C 
BRANCH  32  33
ATOM     33  CD  LYS A   5      38.856  27.219  28.725  0.00  0.00    -0.024 C 
BRANCH  33  34
ATOM     34  CE  LYS A   5      39.454  27.397  30.100  0.00  0.00    -0.086 C 
BRANCH  34  35
ATOM     35  NZ  LYS A   5      39.162  26.208  31.013  0.00  0.00    +0.380 N 
ATOM     36  HZ1 LYS A   5      39.592  26.375  31.945  0.00  0.00    -0.089 HD
ATOM     37  HZ2 LYS A   5      38.133  26.098  31.119  0.00  0.00    -0.089 HD
ATOM     38  HZ3 LYS A   5      39.563  25.344  30.594  0.00  0.00    -0.089 HD
ENDBRANCH  34  35
ENDBRANCH  33  34
ENDBRANCH  32  33
ENDBRANCH  31  32
ENDBRANCH   6  31
ENDBRANCH   3   6
ENDBRANCH   1   2
BRANCH   1  41
ATOM     39  C   ALA A   3      39.857  35.336  28.037  0.00  0.00    +0.241 C 
ATOM     40  O   ALA A   3      38.911  35.287  28.802  0.00  0.00    -0.273 OA
ATOM     41  N   VAL A   4      39.804  34.829  26.817  0.00  0.00    -0.297 N 
ATOM     42  H   VAL A   4      40.636  34.908  26.199  0.00  0.00    +0.150 HD
BRANCH  39  43
ATOM     43  CA  ALA A   3      41.168  36.021  28.455  0.00  0.00    +0.149 C 
ATOM     44  CB  ALA A   3      41.913  35.187  29.504  0.00  0.00    +0.031 C 
BRANCH  43  46
ATOM     45  C   VAL A   2      41.083  38.449  28.351  0.00  0.00    +0.241 C 
ATOM     46  N   ALA A   3      40.804  37.314  28.991  0.00  0.00    -0.297 N 
ATOM     47  H   ALA A   3      40.309  37.359  29.905  0.00  0.00    +0.150 HD
ATOM     48  O   VAL A   2      41.815  38.511  27.343  0.00  0.00    -0.273 OA
BRANCH  45  49
ATOM     49  CA  VAL A   2      40.488  39.713  28.954  0.00  0.00    +0.148 C 
BRANCH  49  52
ATOM     50  C   ARG A   1      41.754  41.698  29.316  0.00  0.00    +0.238 C 
ATOM     51  O   ARG A   1      41.776  41.446  30.506  0.00  0.00    -0.274 OA
ATOM     52  N   VAL A   2      41.157  40.905  28.447  0.00  0.00    -0.297 N 
ATOM     53  H   VAL A   2      41.163  41.124  27.430  0.00  0.00    +0.150 HD
BRANCH  50  54
ATOM     54  CA  ARG A   1      42.413  42.944  28.807  0.00  0.00    +0.145 C 
BRANCH  54  55
ATOM     55  N   ARG A   1      41.756  44.043  29.479  0.00  0.00    -0.238 NA
ATOM     56  H   ARG A   1      42.258  44.518  30.257  0.00  0.00    +0.142 HD
ENDBRANCH  54  55
BRANCH  54  57
ATOM     57  CB  ARG A   1      43.878  42.877  29.190  0.00  0.00    +0.030 C 
BRANCH  57  58
ATOM     58  CG  ARG A   1      44.787  43.514  28.160  0.00  0.00    +0.045 C 
BRANCH  58  59
ATOM     59  CD  ARG A   1      44.862  45.034  28.260  0.00  0.00    +0.174 C 
BRANCH  59  60
ATOM     60  NE  ARG A   1      45.919  45.496  29.176  0.00  0.00    -0.265 N 
ATOM     61  CZ  ARG A   1      45.746  46.382  30.161  0.00  0.00    +0.342 C 
ATOM     62  NH2 ARG A   1      46.776  46.733  30.925  0.00  0.00    -0.292 N 
ATOM     63 HH21 ARG A   1      46.643  47.423  31.692  0.00  0.00    +0.255 HD
ATOM     64 HH22 ARG A   1      47.714  46.318  30.755  0.00  0.00    +0.255 HD
ATOM     65  NH1 ARG A   1      44.556  46.944  30.365  0.00  0.00    -0.292 N 
ATOM     66 HH11 ARG A   1      44.431  47.633  31.134  0.00  0.00    +0.255 HD
ATOM     67 HH12 ARG A   1      43.752  46.694  29.755  0.00  0.00    +0.255 HD
ATOM     68  HE  ARG A   1      46.873  45.102  29.046  0.00  0.00    +0.259 HD
ENDBRANCH  59  60
ENDBRANCH  58  59
ENDBRANCH  57  58
ENDBRANCH  54  57
ENDBRANCH  50  54
ENDBRANCH  49  52
BRANCH  49  69
ATOM     69  CB  VAL A   2      38.966  39.751  28.698  0.00  0.00    +0.027 C 
ATOM     70  CG2 VAL A   2      38.304  40.944  29.438  0.00  0.00    +0.002 C 
ATOM     71  CG1 VAL A   2      38.656  39.784  27.170  0.00  0.00    +0.002 C 
ENDBRANCH  49  69
ENDBRANCH  45  49
ENDBRANCH  43  46
ENDBRANCH  39  43
ENDBRANCH   1  41
BRANCH   1  72
ATOM     72  CB  VAL A   4      38.096  34.807  25.036  0.00  0.00    +0.027 C 
ATOM     73  CG2 VAL A   4      37.975  36.311  25.224  0.00  0.00    +0.002 C 
ATOM     74  CG1 VAL A   4      36.753  34.229  24.707  0.00  0.00    +0.002 C 
ENDBRANCH   1  72
TORSDOF 32
REMARK  Name = ../refined-set-2016/3iph/3iph_pocket.pdb
REMARK  234 active torsions:
REMARK  status: ('A' for Active; 'I' for Inactive)
REMARK    1  A    between atoms: _1  and  _3
REMARK    2  A    between atoms: _3  and  _4
REMARK    3  A    between atoms: _3  and  _6
REMARK    4  A    between atoms: _9  and  _11
REMARK    5  A    between atoms: _11  and  _12
REMARK    6  A    between atoms: _14  and  _16
REMARK    7  A    between atoms: _16  and  _17
REMARK    8  A    between atoms: _16  and  _19
REMARK    9  A    between atoms: _19  and  _20
REMARK   10  A    between atoms: _22  and  _24
REMARK   11  A    between atoms: _24  and  _25
REMARK   12  A    between atoms: _27  and  _29
REMARK   13  A    between atoms: _29  and  _30
REMARK   14  A    between atoms: _33  and  _35
REMARK   15  A    between atoms: _35  and  _36
REMARK   16  A    between atoms: _35  and  _38
REMARK   17  A    between atoms: _38  and  _39
REMARK   18  A    between atoms: _44  and  _45
REMARK   19  A    between atoms: _47  and  _49
REMARK   20  A    between atoms: _49  and  _50
REMARK   21  A    between atoms: _49  and  _52
REMARK   22  A    between atoms: _52  and  _53
REMARK   23  A    between atoms: _55  and  _57
REMARK   24  A    between atoms: _57  and  _58
REMARK   25  A    between atoms: _57  and  _60
REMARK   26  A    between atoms: _63  and  _65
REMARK   27  A    between atoms: _65  and  _66
REMARK   28  A    between atoms: _65  and  _68
REMARK   29  A    between atoms: _70  and  _72
REMARK   30  A    between atoms: _72  and  _73
REMARK   31  A    between atoms: _76  and  _78
REMARK   32  A    between atoms: _78  and  _79
REMARK   33  A    between atoms: _78  and  _81
REMARK   34  A    between atoms: _81  and  _82
REMARK   35  A    between atoms: _82  and  _83
REMARK   36  A    between atoms: _83  and  _84
REMARK   37  A    between atoms: _93  and  _95
REMARK   38  A    between atoms: _95  and  _96
REMARK   39  A    between atoms: _95  and  _98
REMARK   40  A    between atoms: _101  and  _103
REMARK   41  A    between atoms: _103  and  _104
REMARK   42  A    between atoms: _107  and  _109
REMARK   43  A    between atoms: _109  and  _110
REMARK   44  A    between atoms: _109  and  _112
REMARK   45  A    between atoms: _115  and  _117
REMARK   46  A    between atoms: _117  and  _118
REMARK   47  A    between atoms: _117  and  _120
REMARK   48  A    between atoms: _120  and  _121
REMARK   49  A    between atoms: _121  and  _122
REMARK   50  A    between atoms: _122  and  _123
REMARK   51  A    between atoms: _123  and  _124
REMARK   52  A    between atoms: _128  and  _130
REMARK   53  A    between atoms: _130  and  _131
REMARK   54  A    between atoms: _130  and  _133
REMARK   55  A    between atoms: _133  and  _134
REMARK   56  A    between atoms: _134  and  _135
REMARK   57  A    between atoms: _135  and  _136
REMARK   58  A    between atoms: _136  and  _137
REMARK   59  A    between atoms: _141  and  _143
REMARK   60  A    between atoms: _143  and  _144
REMARK   61  A    between atoms: _143  and  _146
REMARK   62  A    between atoms: _146  and  _147
REMARK   63  A    between atoms: _150  and  _152
REMARK   64  A    between atoms: _152  and  _153
REMARK   65  A    between atoms: _152  and  _155
REMARK   66  A    between atoms: _155  and  _156
REMARK   67  A    between atoms: _156  and  _157
REMARK   68  A    between atoms: _157  and  _158
REMARK   69  A    between atoms: _167  and  _169
REMARK   70  A    between atoms: _169  and  _170
REMARK   71  A    between atoms: _169  and  _172
REMARK   72  A    between atoms: _172  and  _173
REMARK   73  A    between atoms: _173  and  _174
REMARK   74  A    between atoms: _174  and  _175
REMARK   75  A    between atoms: _184  and  _186
REMARK   76  A    between atoms: _186  and  _187
REMARK   77  A    between atoms: _186  and  _189
REMARK   78  A    between atoms: _189  and  _190
REMARK   79  A    between atoms: _190  and  _191
REMARK   80  A    between atoms: _194  and  _196
REMARK   81  A    between atoms: _196  and  _197
REMARK   82  A    between atoms: _196  and  _199
REMARK   83  A    between atoms: _199  and  _200
REMARK   84  A    between atoms: _203  and  _205
REMARK   85  A    between atoms: _205  and  _206
REMARK   86  A    between atoms: _205  and  _208
REMARK   87  A    between atoms: _208  and  _209
REMARK   88  A    between atoms: _209  and  _210
REMARK   89  A    between atoms: _210  and  _211
REMARK   90  A    between atoms: _220  and  _222
REMARK   91  A    between atoms: _222  and  _223
REMARK   92  A    between atoms: _222  and  _225
REMARK   93  A    between atoms: _225  and  _226
REMARK   94  A    between atoms: _229  and  _231
REMARK   95  A    between atoms: _231  and  _232
REMARK   96  A    between atoms: _231  and  _234
REMARK   97  A    between atoms: _234  and  _235
REMARK   98  A    between atoms: _238  and  _240
REMARK   99  A    between atoms: _240  and  _241
REMARK  100  A    between atoms: _240  and  _243
REMARK  101  A    between atoms: _243  and  _244
REMARK  102  A    between atoms: _244  and  _245
REMARK  103  A    between atoms: _245  and  _246
REMARK  104  A    between atoms: _246  and  _247
REMARK  105  A    between atoms: _251  and  _253
REMARK  106  A    between atoms: _253  and  _254
REMARK  107  A    between atoms: _253  and  _256
REMARK  108  A    between atoms: _256  and  _257
REMARK  109  A    between atoms: _257  and  _258
REMARK  110  A    between atoms: _260  and  _262
REMARK  111  A    between atoms: _262  and  _263
REMARK  112  A    between atoms: _262  and  _265
REMARK  113  A    between atoms: _268  and  _270
REMARK  114  A    between atoms: _270  and  _271
REMARK  115  A    between atoms: _270  and  _273
REMARK  116  A    between atoms: _273  and  _274
REMARK  117  A    between atoms: _277  and  _279
REMARK  118  A    between atoms: _279  and  _280
REMARK  119  A    between atoms: _282  and  _284
REMARK  120  A    between atoms: _284  and  _285
REMARK  121  A    between atoms: _284  and  _287
REMARK  122  A    between atoms: _287  and  _288
REMARK  123  A    between atoms: _291  and  _293
REMARK  124  A    between atoms: _293  and  _294
REMARK  125  A    between atoms: _293  and  _296
REMARK  126  A    between atoms: _296  and  _297
REMARK  127  A    between atoms: _300  and  _302
REMARK  128  A    between atoms: _302  and  _303
REMARK  129  A    between atoms: _302  and  _305
REMARK  130  A    between atoms: _305  and  _306
REMARK  131  A    between atoms: _309  and  _311
REMARK  132  A    between atoms: _311  and  _312
REMARK  133  A    between atoms: _311  and  _314
REMARK  134  A    between atoms: _314  and  _315
REMARK  135  A    between atoms: _320  and  _321
REMARK  136  A    between atoms: _323  and  _325
REMARK  137  A    between atoms: _325  and  _326
REMARK  138  A    between atoms: _325  and  _328
REMARK  139  A    between atoms: _328  and  _329
REMARK  140  A    between atoms: _332  and  _334
REMARK  141  A    between atoms: _334  and  _335
REMARK  142  A    between atoms: _334  and  _337
REMARK  143  A    between atoms: _340  and  _342
REMARK  144  A    between atoms: _342  and  _343
REMARK  145  A    between atoms: _342  and  _345
REMARK  146  A    between atoms: _345  and  _346
REMARK  147  A    between atoms: _349  and  _351
REMARK  148  A    between atoms: _351  and  _352
REMARK  149  A    between atoms: _351  and  _354
REMARK  150  A    between atoms: _354  and  _355
REMARK  151  A    between atoms: _360  and  _362
REMARK  152  A    between atoms: _362  and  _363
REMARK  153  A    between atoms: _362  and  _365
REMARK  154  A    between atoms: _365  and  _366
REMARK  155  A    between atoms: _369  and  _371
REMARK  156  A    between atoms: _371  and  _372
REMARK  157  A    between atoms: _371  and  _374
REMARK  158  A    between atoms: _374  and  _375
REMARK  159  A    between atoms: _375  and  _376
REMARK  160  A    between atoms: _378  and  _380
REMARK  161  A    between atoms: _380  and  _381
REMARK  162  A    between atoms: _383  and  _385
REMARK  163  A    between atoms: _385  and  _386
REMARK  164  A    between atoms: _389  and  _391
REMARK  165  A    between atoms: _391  and  _392
REMARK  166  A    between atoms: _391  and  _394
REMARK  167  A    between atoms: _394  and  _395
REMARK  168  A    between atoms: _398  and  _400
REMARK  169  A    between atoms: _400  and  _401
REMARK  170  A    between atoms: _400  and  _403
REMARK  171  A    between atoms: _403  and  _404
REMARK  172  A    between atoms: _407  and  _409
REMARK  173  A    between atoms: _409  and  _410
REMARK  174  A    between atoms: _409  and  _412
REMARK  175  A    between atoms: _412  and  _413
REMARK  176  A    between atoms: _418  and  _420
REMARK  177  A    between atoms: _420  and  _421
REMARK  178  A    between atoms: _420  and  _423
REMARK  179  A    between atoms: _423  and  _424
REMARK  180  A    between atoms: _429  and  _431
REMARK  181  A    between atoms: _431  and  _432
REMARK  182  A    between atoms: _431  and  _434
REMARK  183  A    between atoms: _434  and  _435
REMARK  184  A    between atoms: _438  and  _440
REMARK  185  A    between atoms: _440  and  _441
REMARK  186  A    between atoms: _440  and  _443
REMARK  187  A    between atoms: _443  and  _444
REMARK  188  A    between atoms: _450  and  _451
REMARK  189  A    between atoms: _456  and  _458
REMARK  190  A    between atoms: _458  and  _459
REMARK  191  A    between atoms: _458  and  _461
REMARK  192  A    between atoms: _461  and  _462
REMARK  193  A    between atoms: _464  and  _466
REMARK  194  A    between atoms: _466  and  _467
REMARK  195  A    between atoms: _466  and  _469
REMARK  196  A    between atoms: _469  and  _470
REMARK  197  A    between atoms: _475  and  _477
REMARK  198  A    between atoms: _477  and  _478
REMARK  199  A    between atoms: _477  and  _480
REMARK  200  A    between atoms: _480  and  _481
REMARK  201  A    between atoms: _484  and  _486
REMARK  202  A    between atoms: _486  and  _487
REMARK  203  A    between atoms: _490  and  _492
REMARK  204  A    between atoms: _492  and  _493
REMARK  205  A    between atoms: _492  and  _495
REMARK  206  A    between atoms: _498  and  _500
REMARK  207  A    between atoms: _500  and  _501
REMARK  208  A    between atoms: _500  and  _503
REMARK  209  A    between atoms: _503  and  _504
REMARK  210  A    between atoms: _504  and  _505
REMARK  211  A    between atoms: _505  and  _506
REMARK  212  A    between atoms: _506  and  _507
REMARK  213  A    between atoms: _511  and  _513
REMARK  214  A    between atoms: _513  and  _514
REMARK  215  A    between atoms: _513  and  _516
REMARK  216  A    between atoms: _516  and  _517
REMARK  217  A    between atoms: _520  and  _522
REMARK  218  A    between atoms: _522  and  _523
REMARK  219  A    between atoms: _522  and  _525
REMARK  220  A    between atoms: _525  and  _526
REMARK  221  A    between atoms: _529  and  _531
REMARK  222  A    between atoms: _531  and  _532
REMARK  223  A    between atoms: _531  and  _534
REMARK  224  A    between atoms: _534  and  _535
REMARK  225  A    between atoms: _538  and  _540
REMARK  226  A    between atoms: _540  and  _541
REMARK  227  A    between atoms: _540  and  _543
REMARK  228  A    between atoms: _543  and  _544
REMARK  229  A    between atoms: _550  and  _552
REMARK  230  A    between atoms: _552  and  _553
REMARK  231  A    between atoms: _555  and  _557
REMARK  232  A    between atoms: _557  and  _558
REMARK  233  A    between atoms: _557  and  _560
REMARK  234  A    between atoms: _560  and  _561
REMARK                            x       y       z     vdW  Elec       q    Type
REMARK                         _______ _______ _______ _____ _____    ______ ____
ROOT
ATOM      1  NE  ARG A   1      36.146  18.254  29.710  0.00  0.00    -0.265 N 
ATOM      2  HE  ARG A   1      35.633  19.118  29.444  0.00  0.00    +0.259 HD
ATOM      3  CZ  ARG A   1      36.979  17.720  28.818  0.00  0.00    +0.342 C 
ATOM      4  NH2 ARG A   1      37.653  16.619  29.130  0.00  0.00    -0.292 N 
ATOM      5 HH21 ARG A   1      37.528  16.180  30.065  0.00  0.00    +0.255 HD
ATOM      6 HH22 ARG A   1      38.305  16.195  28.440  0.00  0.00    +0.255 HD
ATOM      7  NH1 ARG A   1      37.143  18.282  27.617  0.00  0.00    -0.292 N 
ATOM      8 HH11 ARG A   1      36.618  19.145  27.371  0.00  0.00    +0.255 HD
ATOM      9 HH12 ARG A   1      37.796  17.856  26.929  0.00  0.00    +0.255 HD
ENDROOT
BRANCH   1  10
ATOM     10  CD  ARG A   1      35.909  17.693  31.051  0.00  0.00    +0.174 C 
BRANCH  10  11
ATOM     11  CG  ARG A   1      35.135  18.636  32.008  0.00  0.00    +0.045 C 
BRANCH  11  12
ATOM     12  CB  ARG A   1      33.659  18.535  31.781  0.00  0.00    +0.029 C 
BRANCH  12  13
ATOM     13  CA  ARG A   1      32.723  19.075  32.888  0.00  0.00    +0.133 C 
BRANCH  13  14
ATOM     14  N   ARG A   1      31.502  18.236  32.836  0.00  0.00    -0.239 NA
ATOM     15  H   ARG A   1      31.578  17.339  32.315  0.00  0.00    +0.142 HD
ENDBRANCH  13  14
BRANCH  13  16
ATOM     16  C   ARG A   1      32.475  20.570  32.592  0.00  0.00    +0.224 C 
ATOM     17  O   ARG A   1      32.978  21.464  33.284  0.00  0.00    -0.287 OA
ENDBRANCH  13  16
ENDBRANCH  12  13
ENDBRANCH  11  12
ENDBRANCH  10  11
ENDBRANCH   1  10
TORSDOF 6
REMARK  Name = ../refined-set-2016/3iph/3iph_pocket.pdb
REMARK  234 active torsions:
REMARK  status: ('A' for Active; 'I' for Inactive)
REMARK    1  A    between atoms: _1  and  _3
REMARK    2  A    between atoms: _3  and  _4
REMARK    3  A    between atoms: _3  and  _6
REMARK    4  A    between atoms: _9  and  _11
REMARK    5  A    between atoms: _11  and  _12
REMARK    6  A    between atoms: _14  and  _16
REMARK    7  A    between atoms: _16  and  _17
REMARK    8  A    between atoms: _16  and  _19
REMARK    9  A    between atoms: _19  and  _20
REMARK   10  A    between atoms: _22  and  _24
REMARK   11  A    between atoms: _24  and  _25
REMARK   12  A    between atoms: _27  and  _29
REMARK   13  A    between atoms: _29  and  _30
REMARK   14  A    between atoms: _33  and  _35
REMARK   15  A    between atoms: _35  and  _36
REMARK   16  A    between atoms: _35  and  _38
REMARK   17  A    between atoms: _38  and  _39
REMARK   18  A    between atoms: _44  and  _45
REMARK   19  A    between atoms: _47  and  _49
REMARK   20  A    between atoms: _49  and  _50
REMARK   21  A    between atoms: _49  and  _52
REMARK   22  A    between atoms: _52  and  _53
REMARK   23  A    between atoms: _55  and  _57
REMARK   24  A    between atoms: _57  and  _58
REMARK   25  A    between atoms: _57  and  _60
REMARK   26  A    between atoms: _63  and  _65
REMARK   27  A    between atoms: _65  and  _66
REMARK   28  A    between atoms: _65  and  _68
REMARK   29  A    between atoms: _70  and  _72
REMARK   30  A    between atoms: _72  and  _73
REMARK   31  A    between atoms: _76  and  _78
REMARK   32  A    between atoms: _78  and  _79
REMARK   33  A    between atoms: _78  and  _81
REMARK   34  A    between atoms: _81  and  _82
REMARK   35  A    between atoms: _82  and  _83
REMARK   36  A    between atoms: _83  and  _84
REMARK   37  A    between atoms: _93  and  _95
REMARK   38  A    between atoms: _95  and  _96
REMARK   39  A    between atoms: _95  and  _98
REMARK   40  A    between atoms: _101  and  _103
REMARK   41  A    between atoms: _103  and  _104
REMARK   42  A    between atoms: _107  and  _109
REMARK   43  A    between atoms: _109  and  _110
REMARK   44  A    between atoms: _109  and  _112
REMARK   45  A    between atoms: _115  and  _117
REMARK   46  A    between atoms: _117  and  _118
REMARK   47  A    between atoms: _117  and  _120
REMARK   48  A    between atoms: _120  and  _121
REMARK   49  A    between atoms: _121  and  _122
REMARK   50  A    between atoms: _122  and  _123
REMARK   51  A    between atoms: _123  and  _124
REMARK   52  A    between atoms: _128  and  _130
REMARK   53  A    between atoms: _130  and  _131
REMARK   54  A    between atoms: _130  and  _133
REMARK   55  A    between atoms: _133  and  _134
REMARK   56  A    between atoms: _134  and  _135
REMARK   57  A    between atoms: _135  and  _136
REMARK   58  A    between atoms: _136  and  _137
REMARK   59  A    between atoms: _141  and  _143
REMARK   60  A    between atoms: _143  and  _144
REMARK   61  A    between atoms: _143  and  _146
REMARK   62  A    between atoms: _146  and  _147
REMARK   63  A    between atoms: _150  and  _152
REMARK   64  A    between atoms: _152  and  _153
REMARK   65  A    between atoms: _152  and  _155
REMARK   66  A    between atoms: _155  and  _156
REMARK   67  A    between atoms: _156  and  _157
REMARK   68  A    between atoms: _157  and  _158
REMARK   69  A    between atoms: _167  and  _169
REMARK   70  A    between atoms: _169  and  _170
REMARK   71  A    between atoms: _169  and  _172
REMARK   72  A    between atoms: _172  and  _173
REMARK   73  A    between atoms: _173  and  _174
REMARK   74  A    between atoms: _174  and  _175
REMARK   75  A    between atoms: _184  and  _186
REMARK   76  A    between atoms: _186  and  _187
REMARK   77  A    between atoms: _186  and  _189
REMARK   78  A    between atoms: _189  and  _190
REMARK   79  A    between atoms: _190  and  _191
REMARK   80  A    between atoms: _194  and  _196
REMARK   81  A    between atoms: _196  and  _197
REMARK   82  A    between atoms: _196  and  _199
REMARK   83  A    between atoms: _199  and  _200
REMARK   84  A    between atoms: _203  and  _205
REMARK   85  A    between atoms: _205  and  _206
REMARK   86  A    between atoms: _205  and  _208
REMARK   87  A    between atoms: _208  and  _209
REMARK   88  A    between atoms: _209  and  _210
REMARK   89  A    between atoms: _210  and  _211
REMARK   90  A    between atoms: _220  and  _222
REMARK   91  A    between atoms: _222  and  _223
REMARK   92  A    between atoms: _222  and  _225
REMARK   93  A    between atoms: _225  and  _226
REMARK   94  A    between atoms: _229  and  _231
REMARK   95  A    between atoms: _231  and  _232
REMARK   96  A    between atoms: _231  and  _234
REMARK   97  A    between atoms: _234  and  _235
REMARK   98  A    between atoms: _238  and  _240
REMARK   99  A    between atoms: _240  and  _241
REMARK  100  A    between atoms: _240  and  _243
REMARK  101  A    between atoms: _243  and  _244
REMARK  102  A    between atoms: _244  and  _245
REMARK  103  A    between atoms: _245  and  _246
REMARK  104  A    between atoms: _246  and  _247
REMARK  105  A    between atoms: _251  and  _253
REMARK  106  A    between atoms: _253  and  _254
REMARK  107  A    between atoms: _253  and  _256
REMARK  108  A    between atoms: _256  and  _257
REMARK  109  A    between atoms: _257  and  _258
REMARK  110  A    between atoms: _260  and  _262
REMARK  111  A    between atoms: _262  and  _263
REMARK  112  A    between atoms: _262  and  _265
REMARK  113  A    between atoms: _268  and  _270
REMARK  114  A    between atoms: _270  and  _271
REMARK  115  A    between atoms: _270  and  _273
REMARK  116  A    between atoms: _273  and  _274
REMARK  117  A    between atoms: _277  and  _279
REMARK  118  A    between atoms: _279  and  _280
REMARK  119  A    between atoms: _282  and  _284
REMARK  120  A    between atoms: _284  and  _285
REMARK  121  A    between atoms: _284  and  _287
REMARK  122  A    between atoms: _287  and  _288
REMARK  123  A    between atoms: _291  and  _293
REMARK  124  A    between atoms: _293  and  _294
REMARK  125  A    between atoms: _293  and  _296
REMARK  126  A    between atoms: _296  and  _297
REMARK  127  A    between atoms: _300  and  _302
REMARK  128  A    between atoms: _302  and  _303
REMARK  129  A    between atoms: _302  and  _305
REMARK  130  A    between atoms: _305  and  _306
REMARK  131  A    between atoms: _309  and  _311
REMARK  132  A    between atoms: _311  and  _312
REMARK  133  A    between atoms: _311  and  _314
REMARK  134  A    between atoms: _314  and  _315
REMARK  135  A    between atoms: _320  and  _321
REMARK  136  A    between atoms: _323  and  _325
REMARK  137  A    between atoms: _325  and  _326
REMARK  138  A    between atoms: _325  and  _328
REMARK  139  A    between atoms: _328  and  _329
REMARK  140  A    between atoms: _332  and  _334
REMARK  141  A    between atoms: _334  and  _335
REMARK  142  A    between atoms: _334  and  _337
REMARK  143  A    between atoms: _340  and  _342
REMARK  144  A    between atoms: _342  and  _343
REMARK  145  A    between atoms: _342  and  _345
REMARK  146  A    between atoms: _345  and  _346
REMARK  147  A    between atoms: _349  and  _351
REMARK  148  A    between atoms: _351  and  _352
REMARK  149  A    between atoms: _351  and  _354
REMARK  150  A    between atoms: _354  and  _355
REMARK  151  A    between atoms: _360  and  _362
REMARK  152  A    between atoms: _362  and  _363
REMARK  153  A    between atoms: _362  and  _365
REMARK  154  A    between atoms: _365  and  _366
REMARK  155  A    between atoms: _369  and  _371
REMARK  156  A    between atoms: _371  and  _372
REMARK  157  A    between atoms: _371  and  _374
REMARK  158  A    between atoms: _374  and  _375
REMARK  159  A    between atoms: _375  and  _376
REMARK  160  A    between atoms: _378  and  _380
REMARK  161  A    between atoms: _380  and  _381
REMARK  162  A    between atoms: _383  and  _385
REMARK  163  A    between atoms: _385  and  _386
REMARK  164  A    between atoms: _389  and  _391
REMARK  165  A    between atoms: _391  and  _392
REMARK  166  A    between atoms: _391  and  _394
REMARK  167  A    between atoms: _394  and  _395
REMARK  168  A    between atoms: _398  and  _400
REMARK  169  A    between atoms: _400  and  _401
REMARK  170  A    between atoms: _400  and  _403
REMARK  171  A    between atoms: _403  and  _404
REMARK  172  A    between atoms: _407  and  _409
REMARK  173  A    between atoms: _409  and  _410
REMARK  174  A    between atoms: _409  and  _412
REMARK  175  A    between atoms: _412  and  _413
REMARK  176  A    between atoms: _418  and  _420
REMARK  177  A    between atoms: _420  and  _421
REMARK  178  A    between atoms: _420  and  _423
REMARK  179  A    between atoms: _423  and  _424
REMARK  180  A    between atoms: _429  and  _431
REMARK  181  A    between atoms: _431  and  _432
REMARK  182  A    between atoms: _431  and  _434
REMARK  183  A    between atoms: _434  and  _435
REMARK  184  A    between atoms: _438  and  _440
REMARK  185  A    between atoms: _440  and  _441
REMARK  186  A    between atoms: _440  and  _443
REMARK  187  A    between atoms: _443  and  _444
REMARK  188  A    between atoms: _450  and  _451
REMARK  189  A    between atoms: _456  and  _458
REMARK  190  A    between atoms: _458  and  _459
REMARK  191  A    between atoms: _458  and  _461
REMARK  192  A    between atoms: _461  and  _462
REMARK  193  A    between atoms: _464  and  _466
REMARK  194  A    between atoms: _466  and  _467
REMARK  195  A    between atoms: _466  and  _469
REMARK  196  A    between atoms: _469  and  _470
REMARK  197  A    between atoms: _475  and  _477
REMARK  198  A    between atoms: _477  and  _478
REMARK  199  A    between atoms: _477  and  _480
REMARK  200  A    between atoms: _480  and  _481
REMARK  201  A    between atoms: _484  and  _486
REMARK  202  A    between atoms: _486  and  _487
REMARK  203  A    between atoms: _490  and  _492
REMARK  204  A    between atoms: _492  and  _493
REMARK  205  A    between atoms: _492  and  _495
REMARK  206  A    between atoms: _498  and  _500
REMARK  207  A    between atoms: _500  and  _501
REMARK  208  A    between atoms: _500  and  _503
REMARK  209  A    between atoms: _503  and  _504
REMARK  210  A    between atoms: _504  and  _505
REMARK  211  A    between atoms: _505  and  _506
REMARK  212  A    between atoms: _506  and  _507
REMARK  213  A    between atoms: _511  and  _513
REMARK  214  A    between atoms: _513  and  _514
REMARK  215  A    between atoms: _513  and  _516
REMARK  216  A    between atoms: _516  and  _517
REMARK  217  A    between atoms: _520  and  _522
REMARK  218  A    between atoms: _522  and  _523
REMARK  219  A    between atoms: _522  and  _525
REMARK  220  A    between atoms: _525  and  _526
REMARK  221  A    between atoms: _529  and  _531
REMARK  222  A    between atoms: _531  and  _532
REMARK  223  A    between atoms: _531  and  _534
REMARK  224  A    between atoms: _534  and  _535
REMARK  225  A    between atoms: _538  and  _540
REMARK  226  A    between atoms: _540  and  _541
REMARK  227  A    between atoms: _540  and  _543
REMARK  228  A    between atoms: _543  and  _544
REMARK  229  A    between atoms: _550  and  _552
REMARK  230  A    between atoms: _552  and  _553
REMARK  231  A    between atoms: _555  and  _557
REMARK  232  A    between atoms: _557  and  _558
REMARK  233  A    between atoms: _557  and  _560
REMARK  234  A    between atoms: _560  and  _561
REMARK                            x       y       z     vdW  Elec       q    Type
REMARK                         _______ _______ _______ _____ _____    ______ ____
ROOT
ATOM      1  CA  ARG A   4      28.983  26.783  37.834  0.00  0.00    +0.149 C 
ENDROOT
BRANCH   1   3
ATOM      2  C   LEU A   3      30.025  27.646  35.834  0.00  0.00    +0.241 C 
ATOM      3  N   ARG A   4      29.474  26.617  36.475  0.00  0.00    -0.297 N 
ATOM      4  H   ARG A   4      29.395  25.694  36.003  0.00  0.00    +0.150 HD
ATOM      5  O   LEU A   3      30.072  28.786  36.310  0.00  0.00    -0.273 OA
BRANCH   2   6
ATOM      6  CA  LEU A   3      30.598  27.347  34.455  0.00  0.00    +0.149 C 
BRANCH   6   9
ATOM      7  C   GLU A   2      32.585  26.138  35.164  0.00  0.00    +0.241 C 
ATOM      8  O   GLU A   2      32.969  27.100  35.831  0.00  0.00    -0.273 OA
ATOM      9  N   LEU A   3      31.452  26.161  34.468  0.00  0.00    -0.297 N 
ATOM     10  H   LEU A   3      31.169  25.321  33.924  0.00  0.00    +0.150 HD
BRANCH   7  11
ATOM     11  CA  GLU A   2      33.397  24.835  35.114  0.00  0.00    +0.149 C 
BRANCH  11  14
ATOM     12  C   ARG A   1      31.796  23.432  36.303  0.00  0.00    +0.238 C 
ATOM     13  O   ARG A   1      31.736  24.225  37.247  0.00  0.00    -0.274 OA
ATOM     14  N   GLU A   2      32.549  23.649  35.223  0.00  0.00    -0.297 N 
ATOM     15  H   GLU A   2      32.532  22.961  34.443  0.00  0.00    +0.150 HD
BRANCH  12  16
ATOM     16  CA  ARG A   1      31.010  22.134  36.329  0.00  0.00    +0.145 C 
BRANCH  16  17
ATOM     17  N   ARG A   1      30.201  21.945  35.135  0.00  0.00    -0.238 NA
ATOM     18  H   ARG A   1      30.326  21.085  34.563  0.00  0.00    +0.142 HD
ENDBRANCH  16  17
BRANCH  16  19
ATOM     19  CB  ARG A   1      31.989  20.983  36.515  0.00  0.00    +0.030 C 
BRANCH  19  20
ATOM     20  CG  ARG A   1      32.861  21.120  37.737  0.00  0.00    +0.045 C 
BRANCH  20  21
ATOM     21  CD  ARG A   1      33.890  19.911  37.759  0.00  0.00    +0.174 C 
BRANCH  21  22
ATOM     22  NE  ARG A   1      33.146  18.687  38.008  0.00  0.00    -0.265 N 
ATOM     23  HE  ARG A   1      32.602  18.634  38.893  0.00  0.00    +0.259 HD
ATOM     24  CZ  ARG A   1      33.100  17.629  37.203  0.00  0.00    +0.342 C 
ATOM     25  NH2 ARG A   1      32.348  16.575  37.536  0.00  0.00    -0.292 N 
ATOM     26 HH21 ARG A   1      31.802  16.585  38.421  0.00  0.00    +0.255 HD
ATOM     27 HH22 ARG A   1      32.309  15.746  36.910  0.00  0.00    +0.255 HD
ATOM     28  NH1 ARG A   1      33.837  17.586  36.095  0.00  0.00    -0.292 N 
ATOM     29 HH11 ARG A   1      34.457  18.385  35.851  0.00  0.00    +0.255 HD
ATOM     30 HH12 ARG A   1      33.793  16.754  35.473  0.00  0.00    +0.255 HD
ENDBRANCH  21  22
ENDBRANCH  20  21
ENDBRANCH  19  20
ENDBRANCH  16  19
ENDBRANCH  12  16
ENDBRANCH  11  14
BRANCH  11  31
ATOM     31  CB  GLU A   2      34.262  24.776  33.843  0.00  0.00    +0.041 C 
BRANCH  31  32
ATOM     32  CG  GLU A   2      35.288  25.875  33.879  0.00  0.00    +0.116 C 
BRANCH  32  33
ATOM     33  CD  GLU A   2      36.332  25.810  32.791  0.00  0.00    +0.365 C 
ATOM     34  OE2 GLU A   2      37.269  26.625  32.879  0.00  0.00    -0.246 OA
ATOM     35  OE1 GLU A   2      36.258  24.936  31.900  0.00  0.00    -0.246 OA
ENDBRANCH  32  33
ENDBRANCH  31  32
ENDBRANCH  11  31
ENDBRANCH   7  11
ENDBRANCH   6   9
BRANCH   6  36
ATOM     36  CB  LEU A   3      29.470  27.182  33.447  0.00  0.00    +0.029 C 
BRANCH  36  37
ATOM     37  CG  LEU A   3      28.552  28.399  33.288  0.00  0.00    +0.002 C 
ATOM     38  CD2 LEU A   3      29.367  29.671  33.132  0.00  0.00    +0.000 C 
ATOM     39  CD1 LEU A   3      27.677  28.154  32.035  0.00  0.00    +0.000 C 
ENDBRANCH  36  37
ENDBRANCH   6  36
ENDBRANCH   2   6
ENDBRANCH   1   3
BRANCH   1  40
ATOM     40  C   ARG A   4      30.081  27.373  38.738  0.00  0.00    +0.241 C 
ATOM     41  O   ARG A   4      29.858  28.347  39.484  0.00  0.00    -0.273 OA
ATOM     42  N   LEU A   5      31.262  26.784  38.657  0.00  0.00    -0.297 N 
ATOM     43  H   LEU A   5      31.399  26.010  37.976  0.00  0.00    +0.150 HD
BRANCH  42  44
ATOM     44  CA  LEU A   5      32.389  27.201  39.511  0.00  0.00    +0.149 C 
BRANCH  44  45
ATOM     45  C   LEU A   5      32.740  28.662  39.265  0.00  0.00    +0.241 C 
ATOM     46  O   LEU A   5      32.883  29.434  40.222  0.00  0.00    -0.273 OA
ATOM     47  N   LEU A   6      32.874  29.021  37.983  0.00  0.00    -0.297 N 
ATOM     48  H   LEU A   6      32.739  28.308  37.238  0.00  0.00    +0.150 HD
BRANCH  47  49
ATOM     49  CA  LEU A   6      33.203  30.382  37.609  0.00  0.00    +0.149 C 
BRANCH  49  50
ATOM     50  C   LEU A   6      32.080  31.361  37.953  0.00  0.00    +0.241 C 
ATOM     51  O   LEU A   6      32.359  32.492  38.354  0.00  0.00    -0.273 OA
ATOM     52  N   LYS A   7      30.818  30.968  37.785  0.00  0.00    -0.298 N 
ATOM     53  H   LYS A   7      30.608  30.016  37.423  0.00  0.00    +0.150 HD
BRANCH  52  54
ATOM     54  CA  LYS A   7      29.721  31.898  38.118  0.00  0.00    +0.137 C 
BRANCH  54  55
ATOM     55  C   LYS A   7      29.670  32.221  39.622  0.00  0.00    +0.227 C 
ATOM     56  O   LYS A   7      29.245  33.307  40.017  0.00  0.00    -0.286 OA
ENDBRANCH  54  55
BRANCH  54  57
ATOM     57  CB  LYS A   7      28.348  31.392  37.633  0.00  0.00    +0.028 C 
BRANCH  57  58
ATOM     58  CG  LYS A   7      28.243  31.349  36.106  0.00  0.00    -0.000 C 
BRANCH  58  59
ATOM     59  CD  LYS A   7      26.835  30.993  35.663  0.00  0.00    -0.024 C 
BRANCH  59  60
ATOM     60  CE  LYS A   7      25.815  31.988  36.144  0.00  0.00    -0.086 C 
BRANCH  60  61
ATOM     61  NZ  LYS A   7      24.429  31.627  35.669  0.00  0.00    +0.380 N 
ATOM     62  HZ1 LYS A   7      24.173  30.687  36.034  0.00  0.00    -0.089 HD
ATOM     63  HZ2 LYS A   7      23.750  32.333  36.018  0.00  0.00    -0.089 HD
ATOM     64  HZ3 LYS A   7      24.413  31.613  34.629  0.00  0.00    -0.089 HD
ENDBRANCH  60  61
ENDBRANCH  59  60
ENDBRANCH  58  59
ENDBRANCH  57  58
ENDBRANCH  54  57
ENDBRANCH  52  54
ENDBRANCH  49  50
BRANCH  49  65
ATOM     65  CB  LEU A   6      33.578  30.469  36.112  0.00  0.00    +0.029 C 
BRANCH  65  66
ATOM     66  CG  LEU A   6      34.908  29.817  35.709  0.00  0.00    +0.002 C 
ATOM     67  CD2 LEU A   6      36.105  30.561  36.398  0.00  0.00    +0.000 C 
ATOM     68  CD1 LEU A   6      35.098  29.737  34.206  0.00  0.00    +0.000 C 
ENDBRANCH  65  66
ENDBRANCH  49  65
ENDBRANCH  47  49
ENDBRANCH  44  45
BRANCH  44  69
ATOM     69  CB  LEU A   5      33.629  26.333  39.272  0.00  0.00    +0.029 C 
BRANCH  69  70
ATOM     70  CG  LEU A   5      33.579  24.943  39.913  0.00  0.00    +0.002 C 
ATOM     71  CD2 LEU A   5      33.773  25.049  41.457  0.00  0.00    +0.000 C 
ATOM     72  CD1 LEU A   5      34.591  23.975  39.291  0.00  0.00    +0.000 C 
ENDBRANCH  69  70
ENDBRANCH  44  69
ENDBRANCH  42  44
ENDBRANCH   1  40
BRANCH   1  73
ATOM     73  CB  ARG A   4      28.466  25.446  38.409  0.00  0.00    +0.033 C 
BRANCH  73  74
ATOM     74  CG  ARG A   4      27.135  24.980  37.788  0.00  0.00    +0.045 C 
BRANCH  74  75
ATOM     75  CD  ARG A   4      25.925  25.823  38.283  0.00  0.00    +0.174 C 
BRANCH  75  76
ATOM     76  NE  ARG A   4      25.972  26.025  39.731  0.00  0.00    -0.265 N 
ATOM     77  CZ  ARG A   4      25.492  25.189  40.645  0.00  0.00    +0.342 C 
ATOM     78  NH2 ARG A   4      25.633  25.471  41.937  0.00  0.00    -0.292 N 
ATOM     79 HH21 ARG A   4      25.259  24.819  42.655  0.00  0.00    +0.255 HD
ATOM     80 HH22 ARG A   4      26.118  26.344  42.229  0.00  0.00    +0.255 HD
ATOM     81  NH1 ARG A   4      24.894  24.068  40.283  0.00  0.00    -0.292 N 
ATOM     82 HH11 ARG A   4      24.522  23.420  41.006  0.00  0.00    +0.255 HD
ATOM     83 HH12 ARG A   4      24.796  23.833  39.275  0.00  0.00    +0.255 HD
ATOM     84  HE  ARG A   4      26.420  26.898  40.075  0.00  0.00    +0.259 HD
ENDBRANCH  75  76
ENDBRANCH  74  75
ENDBRANCH  73  74
ENDBRANCH   1  73
TORSDOF 36
REMARK  Name = ../refined-set-2016/3iph/3iph_pocket.pdb
REMARK  234 active torsions:
REMARK  status: ('A' for Active; 'I' for Inactive)
REMARK    1  A    between atoms: _1  and  _3
REMARK    2  A    between atoms: _3  and  _4
REMARK    3  A    between atoms: _3  and  _6
REMARK    4  A    between atoms: _9  and  _11
REMARK    5  A    between atoms: _11  and  _12
REMARK    6  A    between atoms: _14  and  _16
REMARK    7  A    between atoms: _16  and  _17
REMARK    8  A    between atoms: _16  and  _19
REMARK    9  A    between atoms: _19  and  _20
REMARK   10  A    between atoms: _22  and  _24
REMARK   11  A    between atoms: _24  and  _25
REMARK   12  A    between atoms: _27  and  _29
REMARK   13  A    between atoms: _29  and  _30
REMARK   14  A    between atoms: _33  and  _35
REMARK   15  A    between atoms: _35  and  _36
REMARK   16  A    between atoms: _35  and  _38
REMARK   17  A    between atoms: _38  and  _39
REMARK   18  A    between atoms: _44  and  _45
REMARK   19  A    between atoms: _47  and  _49
REMARK   20  A    between atoms: _49  and  _50
REMARK   21  A    between atoms: _49  and  _52
REMARK   22  A    between atoms: _52  and  _53
REMARK   23  A    between atoms: _55  and  _57
REMARK   24  A    between atoms: _57  and  _58
REMARK   25  A    between atoms: _57  and  _60
REMARK   26  A    between atoms: _63  and  _65
REMARK   27  A    between atoms: _65  and  _66
REMARK   28  A    between atoms: _65  and  _68
REMARK   29  A    between atoms: _70  and  _72
REMARK   30  A    between atoms: _72  and  _73
REMARK   31  A    between atoms: _76  and  _78
REMARK   32  A    between atoms: _78  and  _79
REMARK   33  A    between atoms: _78  and  _81
REMARK   34  A    between atoms: _81  and  _82
REMARK   35  A    between atoms: _82  and  _83
REMARK   36  A    between atoms: _83  and  _84
REMARK   37  A    between atoms: _93  and  _95
REMARK   38  A    between atoms: _95  and  _96
REMARK   39  A    between atoms: _95  and  _98
REMARK   40  A    between atoms: _101  and  _103
REMARK   41  A    between atoms: _103  and  _104
REMARK   42  A    between atoms: _107  and  _109
REMARK   43  A    between atoms: _109  and  _110
REMARK   44  A    between atoms: _109  and  _112
REMARK   45  A    between atoms: _115  and  _117
REMARK   46  A    between atoms: _117  and  _118
REMARK   47  A    between atoms: _117  and  _120
REMARK   48  A    between atoms: _120  and  _121
REMARK   49  A    between atoms: _121  and  _122
REMARK   50  A    between atoms: _122  and  _123
REMARK   51  A    between atoms: _123  and  _124
REMARK   52  A    between atoms: _128  and  _130
REMARK   53  A    between atoms: _130  and  _131
REMARK   54  A    between atoms: _130  and  _133
REMARK   55  A    between atoms: _133  and  _134
REMARK   56  A    between atoms: _134  and  _135
REMARK   57  A    between atoms: _135  and  _136
REMARK   58  A    between atoms: _136  and  _137
REMARK   59  A    between atoms: _141  and  _143
REMARK   60  A    between atoms: _143  and  _144
REMARK   61  A    between atoms: _143  and  _146
REMARK   62  A    between atoms: _146  and  _147
REMARK   63  A    between atoms: _150  and  _152
REMARK   64  A    between atoms: _152  and  _153
REMARK   65  A    between atoms: _152  and  _155
REMARK   66  A    between atoms: _155  and  _156
REMARK   67  A    between atoms: _156  and  _157
REMARK   68  A    between atoms: _157  and  _158
REMARK   69  A    between atoms: _167  and  _169
REMARK   70  A    between atoms: _169  and  _170
REMARK   71  A    between atoms: _169  and  _172
REMARK   72  A    between atoms: _172  and  _173
REMARK   73  A    between atoms: _173  and  _174
REMARK   74  A    between atoms: _174  and  _175
REMARK   75  A    between atoms: _184  and  _186
REMARK   76  A    between atoms: _186  and  _187
REMARK   77  A    between atoms: _186  and  _189
REMARK   78  A    between atoms: _189  and  _190
REMARK   79  A    between atoms: _190  and  _191
REMARK   80  A    between atoms: _194  and  _196
REMARK   81  A    between atoms: _196  and  _197
REMARK   82  A    between atoms: _196  and  _199
REMARK   83  A    between atoms: _199  and  _200
REMARK   84  A    between atoms: _203  and  _205
REMARK   85  A    between atoms: _205  and  _206
REMARK   86  A    between atoms: _205  and  _208
REMARK   87  A    between atoms: _208  and  _209
REMARK   88  A    between atoms: _209  and  _210
REMARK   89  A    between atoms: _210  and  _211
REMARK   90  A    between atoms: _220  and  _222
REMARK   91  A    between atoms: _222  and  _223
REMARK   92  A    between atoms: _222  and  _225
REMARK   93  A    between atoms: _225  and  _226
REMARK   94  A    between atoms: _229  and  _231
REMARK   95  A    between atoms: _231  and  _232
REMARK   96  A    between atoms: _231  and  _234
REMARK   97  A    between atoms: _234  and  _235
REMARK   98  A    between atoms: _238  and  _240
REMARK   99  A    between atoms: _240  and  _241
REMARK  100  A    between atoms: _240  and  _243
REMARK  101  A    between atoms: _243  and  _244
REMARK  102  A    between atoms: _244  and  _245
REMARK  103  A    between atoms: _245  and  _246
REMARK  104  A    between atoms: _246  and  _247
REMARK  105  A    between atoms: _251  and  _253
REMARK  106  A    between atoms: _253  and  _254
REMARK  107  A    between atoms: _253  and  _256
REMARK  108  A    between atoms: _256  and  _257
REMARK  109  A    between atoms: _257  and  _258
REMARK  110  A    between atoms: _260  and  _262
REMARK  111  A    between atoms: _262  and  _263
REMARK  112  A    between atoms: _262  and  _265
REMARK  113  A    between atoms: _268  and  _270
REMARK  114  A    between atoms: _270  and  _271
REMARK  115  A    between atoms: _270  and  _273
REMARK  116  A    between atoms: _273  and  _274
REMARK  117  A    between atoms: _277  and  _279
REMARK  118  A    between atoms: _279  and  _280
REMARK  119  A    between atoms: _282  and  _284
REMARK  120  A    between atoms: _284  and  _285
REMARK  121  A    between atoms: _284  and  _287
REMARK  122  A    between atoms: _287  and  _288
REMARK  123  A    between atoms: _291  and  _293
REMARK  124  A    between atoms: _293  and  _294
REMARK  125  A    between atoms: _293  and  _296
REMARK  126  A    between atoms: _296  and  _297
REMARK  127  A    between atoms: _300  and  _302
REMARK  128  A    between atoms: _302  and  _303
REMARK  129  A    between atoms: _302  and  _305
REMARK  130  A    between atoms: _305  and  _306
REMARK  131  A    between atoms: _309  and  _311
REMARK  132  A    between atoms: _311  and  _312
REMARK  133  A    between atoms: _311  and  _314
REMARK  134  A    between atoms: _314  and  _315
REMARK  135  A    between atoms: _320  and  _321
REMARK  136  A    between atoms: _323  and  _325
REMARK  137  A    between atoms: _325  and  _326
REMARK  138  A    between atoms: _325  and  _328
REMARK  139  A    between atoms: _328  and  _329
REMARK  140  A    between atoms: _332  and  _334
REMARK  141  A    between atoms: _334  and  _335
REMARK  142  A    between atoms: _334  and  _337
REMARK  143  A    between atoms: _340  and  _342
REMARK  144  A    between atoms: _342  and  _343
REMARK  145  A    between atoms: _342  and  _345
REMARK  146  A    between atoms: _345  and  _346
REMARK  147  A    between atoms: _349  and  _351
REMARK  148  A    between atoms: _351  and  _352
REMARK  149  A    between atoms: _351  and  _354
REMARK  150  A    between atoms: _354  and  _355
REMARK  151  A    between atoms: _360  and  _362
REMARK  152  A    between atoms: _362  and  _363
REMARK  153  A    between atoms: _362  and  _365
REMARK  154  A    between atoms: _365  and  _366
REMARK  155  A    between atoms: _369  and  _371
REMARK  156  A    between atoms: _371  and  _372
REMARK  157  A    between atoms: _371  and  _374
REMARK  158  A    between atoms: _374  and  _375
REMARK  159  A    between atoms: _375  and  _376
REMARK  160  A    between atoms: _378  and  _380
REMARK  161  A    between atoms: _380  and  _381
REMARK  162  A    between atoms: _383  and  _385
REMARK  163  A    between atoms: _385  and  _386
REMARK  164  A    between atoms: _389  and  _391
REMARK  165  A    between atoms: _391  and  _392
REMARK  166  A    between atoms: _391  and  _394
REMARK  167  A    between atoms: _394  and  _395
REMARK  168  A    between atoms: _398  and  _400
REMARK  169  A    between atoms: _400  and  _401
REMARK  170  A    between atoms: _400  and  _403
REMARK  171  A    between atoms: _403  and  _404
REMARK  172  A    between atoms: _407  and  _409
REMARK  173  A    between atoms: _409  and  _410
REMARK  174  A    between atoms: _409  and  _412
REMARK  175  A    between atoms: _412  and  _413
REMARK  176  A    between atoms: _418  and  _420
REMARK  177  A    between atoms: _420  and  _421
REMARK  178  A    between atoms: _420  and  _423
REMARK  179  A    between atoms: _423  and  _424
REMARK  180  A    between atoms: _429  and  _431
REMARK  181  A    between atoms: _431  and  _432
REMARK  182  A    between atoms: _431  and  _434
REMARK  183  A    between atoms: _434  and  _435
REMARK  184  A    between atoms: _438  and  _440
REMARK  185  A    between atoms: _440  and  _441
REMARK  186  A    between atoms: _440  and  _443
REMARK  187  A    between atoms: _443  and  _444
REMARK  188  A    between atoms: _450  and  _451
REMARK  189  A    between atoms: _456  and  _458
REMARK  190  A    between atoms: _458  and  _459
REMARK  191  A    between atoms: _458  and  _461
REMARK  192  A    between atoms: _461  and  _462
REMARK  193  A    between atoms: _464  and  _466
REMARK  194  A    between atoms: _466  and  _467
REMARK  195  A    between atoms: _466  and  _469
REMARK  196  A    between atoms: _469  and  _470
REMARK  197  A    between atoms: _475  and  _477
REMARK  198  A    between atoms: _477  and  _478
REMARK  199  A    between atoms: _477  and  _480
REMARK  200  A    between atoms: _480  and  _481
REMARK  201  A    between atoms: _484  and  _486
REMARK  202  A    between atoms: _486  and  _487
REMARK  203  A    between atoms: _490  and  _492
REMARK  204  A    between atoms: _492  and  _493
REMARK  205  A    between atoms: _492  and  _495
REMARK  206  A    between atoms: _498  and  _500
REMARK  207  A    between atoms: _500  and  _501
REMARK  208  A    between atoms: _500  and  _503
REMARK  209  A    between atoms: _503  and  _504
REMARK  210  A    between atoms: _504  and  _505
REMARK  211  A    between atoms: _505  and  _506
REMARK  212  A    between atoms: _506  and  _507
REMARK  213  A    between atoms: _511  and  _513
REMARK  214  A    between atoms: _513  and  _514
REMARK  215  A    between atoms: _513  and  _516
REMARK  216  A    between atoms: _516  and  _517
REMARK  217  A    between atoms: _520  and  _522
REMARK  218  A    between atoms: _522  and  _523
REMARK  219  A    between atoms: _522  and  _525
REMARK  220  A    between atoms: _525  and  _526
REMARK  221  A    between atoms: _529  and  _531
REMARK  222  A    between atoms: _531  and  _532
REMARK  223  A    between atoms: _531  and  _534
REMARK  224  A    between atoms: _534  and  _535
REMARK  225  A    between atoms: _538  and  _540
REMARK  226  A    between atoms: _540  and  _541
REMARK  227  A    between atoms: _540  and  _543
REMARK  228  A    between atoms: _543  and  _544
REMARK  229  A    between atoms: _550  and  _552
REMARK  230  A    between atoms: _552  and  _553
REMARK  231  A    between atoms: _555  and  _557
REMARK  232  A    between atoms: _557  and  _558
REMARK  233  A    between atoms: _557  and  _560
REMARK  234  A    between atoms: _560  and  _561
REMARK                            x       y       z     vdW  Elec       q    Type
REMARK                         _______ _______ _______ _____ _____    ______ ____
ROOT
ATOM      1  CA  MET A   1      33.576  32.690  42.684  0.00  0.00    +0.134 C 
ENDROOT
BRANCH   1   2
ATOM      2  N   MET A   1      32.413  32.072  42.069  0.00  0.00    -0.239 NA
ATOM      3  H   MET A   1      32.551  31.478  41.227  0.00  0.00    +0.142 HD
ENDBRANCH   1   2
BRANCH   1   4
ATOM      4  C   MET A   1      33.650  34.180  42.500  0.00  0.00    +0.224 C 
ATOM      5  O   MET A   1      33.856  34.648  41.376  0.00  0.00    -0.287 OA
ENDBRANCH   1   4
BRANCH   1   6
ATOM      6  CB  MET A   1      34.859  32.116  42.069  0.00  0.00    +0.037 C 
BRANCH   6   7
ATOM      7  CG  MET A   1      34.973  30.601  42.111  0.00  0.00    +0.059 C 
BRANCH   7   8
ATOM      8  SD  MET A   1      35.252  29.998  43.768  0.00  0.00    -0.139 S 
ATOM      9  CE  MET A   1      33.625  29.981  44.424  0.00  0.00    +0.069 C 
ENDBRANCH   7   8
ENDBRANCH   6   7
ENDBRANCH   1   6
TORSDOF 5
REMARK  Name = ../refined-set-2016/3iph/3iph_pocket.pdb
REMARK  234 active torsions:
REMARK  status: ('A' for Active; 'I' for Inactive)
REMARK    1  A    between atoms: _1  and  _3
REMARK    2  A    between atoms: _3  and  _4
REMARK    3  A    between atoms: _3  and  _6
REMARK    4  A    between atoms: _9  and  _11
REMARK    5  A    between atoms: _11  and  _12
REMARK    6  A    between atoms: _14  and  _16
REMARK    7  A    between atoms: _16  and  _17
REMARK    8  A    between atoms: _16  and  _19
REMARK    9  A    between atoms: _19  and  _20
REMARK   10  A    between atoms: _22  and  _24
REMARK   11  A    between atoms: _24  and  _25
REMARK   12  A    between atoms: _27  and  _29
REMARK   13  A    between atoms: _29  and  _30
REMARK   14  A    between atoms: _33  and  _35
REMARK   15  A    between atoms: _35  and  _36
REMARK   16  A    between atoms: _35  and  _38
REMARK   17  A    between atoms: _38  and  _39
REMARK   18  A    between atoms: _44  and  _45
REMARK   19  A    between atoms: _47  and  _49
REMARK   20  A    between atoms: _49  and  _50
REMARK   21  A    between atoms: _49  and  _52
REMARK   22  A    between atoms: _52  and  _53
REMARK   23  A    between atoms: _55  and  _57
REMARK   24  A    between atoms: _57  and  _58
REMARK   25  A    between atoms: _57  and  _60
REMARK   26  A    between atoms: _63  and  _65
REMARK   27  A    between atoms: _65  and  _66
REMARK   28  A    between atoms: _65  and  _68
REMARK   29  A    between atoms: _70  and  _72
REMARK   30  A    between atoms: _72  and  _73
REMARK   31  A    between atoms: _76  and  _78
REMARK   32  A    between atoms: _78  and  _79
REMARK   33  A    between atoms: _78  and  _81
REMARK   34  A    between atoms: _81  and  _82
REMARK   35  A    between atoms: _82  and  _83
REMARK   36  A    between atoms: _83  and  _84
REMARK   37  A    between atoms: _93  and  _95
REMARK   38  A    between atoms: _95  and  _96
REMARK   39  A    between atoms: _95  and  _98
REMARK   40  A    between atoms: _101  and  _103
REMARK   41  A    between atoms: _103  and  _104
REMARK   42  A    between atoms: _107  and  _109
REMARK   43  A    between atoms: _109  and  _110
REMARK   44  A    between atoms: _109  and  _112
REMARK   45  A    between atoms: _115  and  _117
REMARK   46  A    between atoms: _117  and  _118
REMARK   47  A    between atoms: _117  and  _120
REMARK   48  A    between atoms: _120  and  _121
REMARK   49  A    between atoms: _121  and  _122
REMARK   50  A    between atoms: _122  and  _123
REMARK   51  A    between atoms: _123  and  _124
REMARK   52  A    between atoms: _128  and  _130
REMARK   53  A    between atoms: _130  and  _131
REMARK   54  A    between atoms: _130  and  _133
REMARK   55  A    between atoms: _133  and  _134
REMARK   56  A    between atoms: _134  and  _135
REMARK   57  A    between atoms: _135  and  _136
REMARK   58  A    between atoms: _136  and  _137
REMARK   59  A    between atoms: _141  and  _143
REMARK   60  A    between atoms: _143  and  _144
REMARK   61  A    between atoms: _143  and  _146
REMARK   62  A    between atoms: _146  and  _147
REMARK   63  A    between atoms: _150  and  _152
REMARK   64  A    between atoms: _152  and  _153
REMARK   65  A    between atoms: _152  and  _155
REMARK   66  A    between atoms: _155  and  _156
REMARK   67  A    between atoms: _156  and  _157
REMARK   68  A    between atoms: _157  and  _158
REMARK   69  A    between atoms: _167  and  _169
REMARK   70  A    between atoms: _169  and  _170
REMARK   71  A    between atoms: _169  and  _172
REMARK   72  A    between atoms: _172  and  _173
REMARK   73  A    between atoms: _173  and  _174
REMARK   74  A    between atoms: _174  and  _175
REMARK   75  A    between atoms: _184  and  _186
REMARK   76  A    between atoms: _186  and  _187
REMARK   77  A    between atoms: _186  and  _189
REMARK   78  A    between atoms: _189  and  _190
REMARK   79  A    between atoms: _190  and  _191
REMARK   80  A    between atoms: _194  and  _196
REMARK   81  A    between atoms: _196  and  _197
REMARK   82  A    between atoms: _196  and  _199
REMARK   83  A    between atoms: _199  and  _200
REMARK   84  A    between atoms: _203  and  _205
REMARK   85  A    between atoms: _205  and  _206
REMARK   86  A    between atoms: _205  and  _208
REMARK   87  A    between atoms: _208  and  _209
REMARK   88  A    between atoms: _209  and  _210
REMARK   89  A    between atoms: _210  and  _211
REMARK   90  A    between atoms: _220  and  _222
REMARK   91  A    between atoms: _222  and  _223
REMARK   92  A    between atoms: _222  and  _225
REMARK   93  A    between atoms: _225  and  _226
REMARK   94  A    between atoms: _229  and  _231
REMARK   95  A    between atoms: _231  and  _232
REMARK   96  A    between atoms: _231  and  _234
REMARK   97  A    between atoms: _234  and  _235
REMARK   98  A    between atoms: _238  and  _240
REMARK   99  A    between atoms: _240  and  _241
REMARK  100  A    between atoms: _240  and  _243
REMARK  101  A    between atoms: _243  and  _244
REMARK  102  A    between atoms: _244  and  _245
REMARK  103  A    between atoms: _245  and  _246
REMARK  104  A    between atoms: _246  and  _247
REMARK  105  A    between atoms: _251  and  _253
REMARK  106  A    between atoms: _253  and  _254
REMARK  107  A    between atoms: _253  and  _256
REMARK  108  A    between atoms: _256  and  _257
REMARK  109  A    between atoms: _257  and  _258
REMARK  110  A    between atoms: _260  and  _262
REMARK  111  A    between atoms: _262  and  _263
REMARK  112  A    between atoms: _262  and  _265
REMARK  113  A    between atoms: _268  and  _270
REMARK  114  A    between atoms: _270  and  _271
REMARK  115  A    between atoms: _270  and  _273
REMARK  116  A    between atoms: _273  and  _274
REMARK  117  A    between atoms: _277  and  _279
REMARK  118  A    between atoms: _279  and  _280
REMARK  119  A    between atoms: _282  and  _284
REMARK  120  A    between atoms: _284  and  _285
REMARK  121  A    between atoms: _284  and  _287
REMARK  122  A    between atoms: _287  and  _288
REMARK  123  A    between atoms: _291  and  _293
REMARK  124  A    between atoms: _293  and  _294
REMARK  125  A    between atoms: _293  and  _296
REMARK  126  A    between atoms: _296  and  _297
REMARK  127  A    between atoms: _300  and  _302
REMARK  128  A    between atoms: _302  and  _303
REMARK  129  A    between atoms: _302  and  _305
REMARK  130  A    between atoms: _305  and  _306
REMARK  131  A    between atoms: _309  and  _311
REMARK  132  A    between atoms: _311  and  _312
REMARK  133  A    between atoms: _311  and  _314
REMARK  134  A    between atoms: _314  and  _315
REMARK  135  A    between atoms: _320  and  _321
REMARK  136  A    between atoms: _323  and  _325
REMARK  137  A    between atoms: _325  and  _326
REMARK  138  A    between atoms: _325  and  _328
REMARK  139  A    between atoms: _328  and  _329
REMARK  140  A    between atoms: _332  and  _334
REMARK  141  A    between atoms: _334  and  _335
REMARK  142  A    between atoms: _334  and  _337
REMARK  143  A    between atoms: _340  and  _342
REMARK  144  A    between atoms: _342  and  _343
REMARK  145  A    between atoms: _342  and  _345
REMARK  146  A    between atoms: _345  and  _346
REMARK  147  A    between atoms: _349  and  _351
REMARK  148  A    between atoms: _351  and  _352
REMARK  149  A    between atoms: _351  and  _354
REMARK  150  A    between atoms: _354  and  _355
REMARK  151  A    between atoms: _360  and  _362
REMARK  152  A    between atoms: _362  and  _363
REMARK  153  A    between atoms: _362  and  _365
REMARK  154  A    between atoms: _365  and  _366
REMARK  155  A    between atoms: _369  and  _371
REMARK  156  A    between atoms: _371  and  _372
REMARK  157  A    between atoms: _371  and  _374
REMARK  158  A    between atoms: _374  and  _375
REMARK  159  A    between atoms: _375  and  _376
REMARK  160  A    between atoms: _378  and  _380
REMARK  161  A    between atoms: _380  and  _381
REMARK  162  A    between atoms: _383  and  _385
REMARK  163  A    between atoms: _385  and  _386
REMARK  164  A    between atoms: _389  and  _391
REMARK  165  A    between atoms: _391  and  _392
REMARK  166  A    between atoms: _391  and  _394
REMARK  167  A    between atoms: _394  and  _395
REMARK  168  A    between atoms: _398  and  _400
REMARK  169  A    between atoms: _400  and  _401
REMARK  170  A    between atoms: _400  and  _403
REMARK  171  A    between atoms: _403  and  _404
REMARK  172  A    between atoms: _407  and  _409
REMARK  173  A    between atoms: _409  and  _410
REMARK  174  A    between atoms: _409  and  _412
REMARK  175  A    between atoms: _412  and  _413
REMARK  176  A    between atoms: _418  and  _420
REMARK  177  A    between atoms: _420  and  _421
REMARK  178  A    between atoms: _420  and  _423
REMARK  179  A    between atoms: _423  and  _424
REMARK  180  A    between atoms: _429  and  _431
REMARK  181  A    between atoms: _431  and  _432
REMARK  182  A    between atoms: _431  and  _434
REMARK  183  A    between atoms: _434  and  _435
REMARK  184  A    between atoms: _438  and  _440
REMARK  185  A    between atoms: _440  and  _441
REMARK  186  A    between atoms: _440  and  _443
REMARK  187  A    between atoms: _443  and  _444
REMARK  188  A    between atoms: _450  and  _451
REMARK  189  A    between atoms: _456  and  _458
REMARK  190  A    between atoms: _458  and  _459
REMARK  191  A    between atoms: _458  and  _461
REMARK  192  A    between atoms: _461  and  _462
REMARK  193  A    between atoms: _464  and  _466
REMARK  194  A    between atoms: _466  and  _467
REMARK  195  A    between atoms: _466  and  _469
REMARK  196  A    between atoms: _469  and  _470
REMARK  197  A    between atoms: _475  and  _477
REMARK  198  A    between atoms: _477  and  _478
REMARK  199  A    between atoms: _477  and  _480
REMARK  200  A    between atoms: _480  and  _481
REMARK  201  A    between atoms: _484  and  _486
REMARK  202  A    between atoms: _486  and  _487
REMARK  203  A    between atoms: _490  and  _492
REMARK  204  A    between atoms: _492  and  _493
REMARK  205  A    between atoms: _492  and  _495
REMARK  206  A    between atoms: _498  and  _500
REMARK  207  A    between atoms: _500  and  _501
REMARK  208  A    between atoms: _500  and  _503
REMARK  209  A    between atoms: _503  and  _504
REMARK  210  A    between atoms: _504  and  _505
REMARK  211  A    between atoms: _505  and  _506
REMARK  212  A    between atoms: _506  and  _507
REMARK  213  A    between atoms: _511  and  _513
REMARK  214  A    between atoms: _513  and  _514
REMARK  215  A    between atoms: _513  and  _516
REMARK  216  A    between atoms: _516  and  _517
REMARK  217  A    between atoms: _520  and  _522
REMARK  218  A    between atoms: _522  and  _523
REMARK  219  A    between atoms: _522  and  _525
REMARK  220  A    between atoms: _525  and  _526
REMARK  221  A    between atoms: _529  and  _531
REMARK  222  A    between atoms: _531  and  _532
REMARK  223  A    between atoms: _531  and  _534
REMARK  224  A    between atoms: _534  and  _535
REMARK  225  A    between atoms: _538  and  _540
REMARK  226  A    between atoms: _540  and  _541
REMARK  227  A    between atoms: _540  and  _543
REMARK  228  A    between atoms: _543  and  _544
REMARK  229  A    between atoms: _550  and  _552
REMARK  230  A    between atoms: _552  and  _553
REMARK  231  A    between atoms: _555  and  _557
REMARK  232  A    between atoms: _557  and  _558
REMARK  233  A    between atoms: _557  and  _560
REMARK  234  A    between atoms: _560  and  _561
REMARK                            x       y       z     vdW  Elec       q    Type
REMARK                         _______ _______ _______ _____ _____    ______ ____
ROOT
ATOM      1  CA  LEU A   4      33.677  35.139  35.372  0.00  0.00    +0.149 C 
ENDROOT
BRANCH   1   3
ATOM      2  C   GLY A   3      35.504  35.082  36.955  0.00  0.00    +0.243 C 
ATOM      3  N   LEU A   4      34.198  35.140  36.736  0.00  0.00    -0.297 N 
ATOM      4  H   LEU A   4      33.541  35.186  37.540  0.00  0.00    +0.150 HD
ATOM      5  O   GLY A   3      36.328  35.194  36.052  0.00  0.00    -0.273 OA
BRANCH   2   6
ATOM      6  CA  GLY A   3      35.948  34.907  38.408  0.00  0.00    +0.176 C 
BRANCH   6   9
ATOM      7  C   ILE A   2      38.033  33.835  39.053  0.00  0.00    +0.241 C 
ATOM      8  O   ILE A   2      37.445  32.883  39.562  0.00  0.00    -0.273 OA
ATOM      9  N   GLY A   3      37.397  34.866  38.500  0.00  0.00    -0.295 N 
ATOM     10  H   GLY A   3      37.952  35.662  38.125  0.00  0.00    +0.150 HD
BRANCH   7  11
ATOM     11  CA  ILE A   2      39.555  33.895  39.048  0.00  0.00    +0.148 C 
BRANCH  11  14
ATOM     12  C   VAL A   1      39.678  34.213  41.426  0.00  0.00    +0.238 C 
ATOM     13  O   VAL A   1      38.919  35.195  41.330  0.00  0.00    -0.274 OA
ATOM     14  N   ILE A   2      40.028  33.490  40.367  0.00  0.00    -0.297 N 
ATOM     15  H   ILE A   2      40.630  32.649  40.477  0.00  0.00    +0.150 HD
BRANCH  12  16
ATOM     16  CA  VAL A   1      40.260  33.803  42.777  0.00  0.00    +0.145 C 
BRANCH  16  17
ATOM     17  CB  VAL A   1      39.125  33.153  43.645  0.00  0.00    +0.025 C 
ATOM     18  CG2 VAL A   1      39.563  32.889  45.128  0.00  0.00    +0.002 C 
ATOM     19  CG1 VAL A   1      38.641  31.879  42.999  0.00  0.00    +0.002 C 
ENDBRANCH  16  17
BRANCH  16  20
ATOM     20  N   VAL A   1      40.786  35.015  43.373  0.00  0.00    -0.238 NA
ATOM     21  H   VAL A   1      40.251  35.900  43.266  0.00  0.00    +0.142 HD
ENDBRANCH  16  20
ENDBRANCH  12  16
ENDBRANCH  11  14
BRANCH  11  22
ATOM     22  CB  ILE A   2      40.177  33.026  37.899  0.00  0.00    +0.027 C 
ATOM     23  CG2 ILE A   2      39.572  31.614  37.859  0.00  0.00    +0.002 C 
BRANCH  22  24
ATOM     24  CG1 ILE A   2      40.019  33.731  36.557  0.00  0.00    +0.002 C 
ATOM     25  CD1 ILE A   2      40.813  35.007  36.446  0.00  0.00    +0.000 C 
ENDBRANCH  22  24
ENDBRANCH  11  22
ENDBRANCH   7  11
ENDBRANCH   6   9
ENDBRANCH   2   6
ENDBRANCH   1   3
BRANCH   1  26
ATOM     26  C   LEU A   4      33.231  36.535  34.940  0.00  0.00    +0.241 C 
ATOM     27  O   LEU A   4      32.279  37.062  35.493  0.00  0.00    -0.273 OA
ATOM     28  N   LEU A   5      33.915  37.140  33.967  0.00  0.00    -0.297 N 
ATOM     29  H   LEU A   5      34.762  36.683  33.572  0.00  0.00    +0.150 HD
BRANCH  28  30
ATOM     30  CA  LEU A   5      33.483  38.450  33.446  0.00  0.00    +0.149 C 
BRANCH  30  31
ATOM     31  C   LEU A   5      32.328  38.325  32.449  0.00  0.00    +0.241 C 
ATOM     32  O   LEU A   5      31.460  39.200  32.382  0.00  0.00    -0.273 OA
ATOM     33  N   ASP A   6      32.312  37.247  31.671  0.00  0.00    -0.298 N 
ATOM     34  H   ASP A   6      33.038  36.511  31.787  0.00  0.00    +0.150 HD
BRANCH  33  35
ATOM     35  CA  ASP A   6      31.283  37.096  30.660  0.00  0.00    +0.148 C 
BRANCH  35  36
ATOM     36  C   ASP A   6      31.230  35.634  30.190  0.00  0.00    +0.227 C 
ATOM     37  O   ASP A   6      32.223  34.892  30.271  0.00  0.00    -0.286 OA
ENDBRANCH  35  36
BRANCH  35  38
ATOM     38  CB  ASP A   6      31.562  38.067  29.501  0.00  0.00    +0.142 C 
BRANCH  38  39
ATOM     39  CG  ASP A   6      30.407  38.163  28.507  0.00  0.00    +0.367 C 
ATOM     40  OD2 ASP A   6      29.266  37.840  28.897  0.00  0.00    -0.246 OA
ATOM     41  OD1 ASP A   6      30.635  38.620  27.349  0.00  0.00    -0.246 OA
ENDBRANCH  38  39
ENDBRANCH  35  38
ENDBRANCH  33  35
ENDBRANCH  30  31
BRANCH  30  42
ATOM     42  CB  LEU A   5      34.646  39.204  32.768  0.00  0.00    +0.029 C 
BRANCH  42  43
ATOM     43  CG  LEU A   5      35.834  39.627  33.651  0.00  0.00    +0.002 C 
ATOM     44  CD2 LEU A   5      35.379  40.597  34.724  0.00  0.00    +0.000 C 
ATOM     45  CD1 LEU A   5      36.938  40.274  32.830  0.00  0.00    +0.000 C 
ENDBRANCH  42  43
ENDBRANCH  30  42
ENDBRANCH  28  30
ENDBRANCH   1  26
BRANCH   1  46
ATOM     46  CB  LEU A   4      32.518  34.134  35.278  0.00  0.00    +0.029 C 
BRANCH  46  47
ATOM     47  CG  LEU A   4      31.985  33.857  33.868  0.00  0.00    +0.002 C 
ATOM     48  CD2 LEU A   4      30.750  32.987  33.972  0.00  0.00    +0.000 C 
ATOM     49  CD1 LEU A   4      33.072  33.194  33.000  0.00  0.00    +0.000 C 
ENDBRANCH  46  47
ENDBRANCH   1  46
TORSDOF 21
REMARK  Name = ../refined-set-2016/3iph/3iph_pocket.pdb
REMARK  234 active torsions:
REMARK  status: ('A' for Active; 'I' for Inactive)
REMARK    1  A    between atoms: _1  and  _3
REMARK    2  A    between atoms: _3  and  _4
REMARK    3  A    between atoms: _3  and  _6
REMARK    4  A    between atoms: _9  and  _11
REMARK    5  A    between atoms: _11  and  _12
REMARK    6  A    between atoms: _14  and  _16
REMARK    7  A    between atoms: _16  and  _17
REMARK    8  A    between atoms: _16  and  _19
REMARK    9  A    between atoms: _19  and  _20
REMARK   10  A    between atoms: _22  and  _24
REMARK   11  A    between atoms: _24  and  _25
REMARK   12  A    between atoms: _27  and  _29
REMARK   13  A    between atoms: _29  and  _30
REMARK   14  A    between atoms: _33  and  _35
REMARK   15  A    between atoms: _35  and  _36
REMARK   16  A    between atoms: _35  and  _38
REMARK   17  A    between atoms: _38  and  _39
REMARK   18  A    between atoms: _44  and  _45
REMARK   19  A    between atoms: _47  and  _49
REMARK   20  A    between atoms: _49  and  _50
REMARK   21  A    between atoms: _49  and  _52
REMARK   22  A    between atoms: _52  and  _53
REMARK   23  A    between atoms: _55  and  _57
REMARK   24  A    between atoms: _57  and  _58
REMARK   25  A    between atoms: _57  and  _60
REMARK   26  A    between atoms: _63  and  _65
REMARK   27  A    between atoms: _65  and  _66
REMARK   28  A    between atoms: _65  and  _68
REMARK   29  A    between atoms: _70  and  _72
REMARK   30  A    between atoms: _72  and  _73
REMARK   31  A    between atoms: _76  and  _78
REMARK   32  A    between atoms: _78  and  _79
REMARK   33  A    between atoms: _78  and  _81
REMARK   34  A    between atoms: _81  and  _82
REMARK   35  A    between atoms: _82  and  _83
REMARK   36  A    between atoms: _83  and  _84
REMARK   37  A    between atoms: _93  and  _95
REMARK   38  A    between atoms: _95  and  _96
REMARK   39  A    between atoms: _95  and  _98
REMARK   40  A    between atoms: _101  and  _103
REMARK   41  A    between atoms: _103  and  _104
REMARK   42  A    between atoms: _107  and  _109
REMARK   43  A    between atoms: _109  and  _110
REMARK   44  A    between atoms: _109  and  _112
REMARK   45  A    between atoms: _115  and  _117
REMARK   46  A    between atoms: _117  and  _118
REMARK   47  A    between atoms: _117  and  _120
REMARK   48  A    between atoms: _120  and  _121
REMARK   49  A    between atoms: _121  and  _122
REMARK   50  A    between atoms: _122  and  _123
REMARK   51  A    between atoms: _123  and  _124
REMARK   52  A    between atoms: _128  and  _130
REMARK   53  A    between atoms: _130  and  _131
REMARK   54  A    between atoms: _130  and  _133
REMARK   55  A    between atoms: _133  and  _134
REMARK   56  A    between atoms: _134  and  _135
REMARK   57  A    between atoms: _135  and  _136
REMARK   58  A    between atoms: _136  and  _137
REMARK   59  A    between atoms: _141  and  _143
REMARK   60  A    between atoms: _143  and  _144
REMARK   61  A    between atoms: _143  and  _146
REMARK   62  A    between atoms: _146  and  _147
REMARK   63  A    between atoms: _150  and  _152
REMARK   64  A    between atoms: _152  and  _153
REMARK   65  A    between atoms: _152  and  _155
REMARK   66  A    between atoms: _155  and  _156
REMARK   67  A    between atoms: _156  and  _157
REMARK   68  A    between atoms: _157  and  _158
REMARK   69  A    between atoms: _167  and  _169
REMARK   70  A    between atoms: _169  and  _170
REMARK   71  A    between atoms: _169  and  _172
REMARK   72  A    between atoms: _172  and  _173
REMARK   73  A    between atoms: _173  and  _174
REMARK   74  A    between atoms: _174  and  _175
REMARK   75  A    between atoms: _184  and  _186
REMARK   76  A    between atoms: _186  and  _187
REMARK   77  A    between atoms: _186  and  _189
REMARK   78  A    between atoms: _189  and  _190
REMARK   79  A    between atoms: _190  and  _191
REMARK   80  A    between atoms: _194  and  _196
REMARK   81  A    between atoms: _196  and  _197
REMARK   82  A    between atoms: _196  and  _199
REMARK   83  A    between atoms: _199  and  _200
REMARK   84  A    between atoms: _203  and  _205
REMARK   85  A    between atoms: _205  and  _206
REMARK   86  A    between atoms: _205  and  _208
REMARK   87  A    between atoms: _208  and  _209
REMARK   88  A    between atoms: _209  and  _210
REMARK   89  A    between atoms: _210  and  _211
REMARK   90  A    between atoms: _220  and  _222
REMARK   91  A    between atoms: _222  and  _223
REMARK   92  A    between atoms: _222  and  _225
REMARK   93  A    between atoms: _225  and  _226
REMARK   94  A    between atoms: _229  and  _231
REMARK   95  A    between atoms: _231  and  _232
REMARK   96  A    between atoms: _231  and  _234
REMARK   97  A    between atoms: _234  and  _235
REMARK   98  A    between atoms: _238  and  _240
REMARK   99  A    between atoms: _240  and  _241
REMARK  100  A    between atoms: _240  and  _243
REMARK  101  A    between atoms: _243  and  _244
REMARK  102  A    between atoms: _244  and  _245
REMARK  103  A    between atoms: _245  and  _246
REMARK  104  A    between atoms: _246  and  _247
REMARK  105  A    between atoms: _251  and  _253
REMARK  106  A    between atoms: _253  and  _254
REMARK  107  A    between atoms: _253  and  _256
REMARK  108  A    between atoms: _256  and  _257
REMARK  109  A    between atoms: _257  and  _258
REMARK  110  A    between atoms: _260  and  _262
REMARK  111  A    between atoms: _262  and  _263
REMARK  112  A    between atoms: _262  and  _265
REMARK  113  A    between atoms: _268  and  _270
REMARK  114  A    between atoms: _270  and  _271
REMARK  115  A    between atoms: _270  and  _273
REMARK  116  A    between atoms: _273  and  _274
REMARK  117  A    between atoms: _277  and  _279
REMARK  118  A    between atoms: _279  and  _280
REMARK  119  A    between atoms: _282  and  _284
REMARK  120  A    between atoms: _284  and  _285
REMARK  121  A    between atoms: _284  and  _287
REMARK  122  A    between atoms: _287  and  _288
REMARK  123  A    between atoms: _291  and  _293
REMARK  124  A    between atoms: _293  and  _294
REMARK  125  A    between atoms: _293  and  _296
REMARK  126  A    between atoms: _296  and  _297
REMARK  127  A    between atoms: _300  and  _302
REMARK  128  A    between atoms: _302  and  _303
REMARK  129  A    between atoms: _302  and  _305
REMARK  130  A    between atoms: _305  and  _306
REMARK  131  A    between atoms: _309  and  _311
REMARK  132  A    between atoms: _311  and  _312
REMARK  133  A    between atoms: _311  and  _314
REMARK  134  A    between atoms: _314  and  _315
REMARK  135  A    between atoms: _320  and  _321
REMARK  136  A    between atoms: _323  and  _325
REMARK  137  A    between atoms: _325  and  _326
REMARK  138  A    between atoms: _325  and  _328
REMARK  139  A    between atoms: _328  and  _329
REMARK  140  A    between atoms: _332  and  _334
REMARK  141  A    between atoms: _334  and  _335
REMARK  142  A    between atoms: _334  and  _337
REMARK  143  A    between atoms: _340  and  _342
REMARK  144  A    between atoms: _342  and  _343
REMARK  145  A    between atoms: _342  and  _345
REMARK  146  A    between atoms: _345  and  _346
REMARK  147  A    between atoms: _349  and  _351
REMARK  148  A    between atoms: _351  and  _352
REMARK  149  A    between atoms: _351  and  _354
REMARK  150  A    between atoms: _354  and  _355
REMARK  151  A    between atoms: _360  and  _362
REMARK  152  A    between atoms: _362  and  _363
REMARK  153  A    between atoms: _362  and  _365
REMARK  154  A    between atoms: _365  and  _366
REMARK  155  A    between atoms: _369  and  _371
REMARK  156  A    between atoms: _371  and  _372
REMARK  157  A    between atoms: _371  and  _374
REMARK  158  A    between atoms: _374  and  _375
REMARK  159  A    between atoms: _375  and  _376
REMARK  160  A    between atoms: _378  and  _380
REMARK  161  A    between atoms: _380  and  _381
REMARK  162  A    between atoms: _383  and  _385
REMARK  163  A    between atoms: _385  and  _386
REMARK  164  A    between atoms: _389  and  _391
REMARK  165  A    between atoms: _391  and  _392
REMARK  166  A    between atoms: _391  and  _394
REMARK  167  A    between atoms: _394  and  _395
REMARK  168  A    between atoms: _398  and  _400
REMARK  169  A    between atoms: _400  and  _401
REMARK  170  A    between atoms: _400  and  _403
REMARK  171  A    between atoms: _403  and  _404
REMARK  172  A    between atoms: _407  and  _409
REMARK  173  A    between atoms: _409  and  _410
REMARK  174  A    between atoms: _409  and  _412
REMARK  175  A    between atoms: _412  and  _413
REMARK  176  A    between atoms: _418  and  _420
REMARK  177  A    between atoms: _420  and  _421
REMARK  178  A    between atoms: _420  and  _423
REMARK  179  A    between atoms: _423  and  _424
REMARK  180  A    between atoms: _429  and  _431
REMARK  181  A    between atoms: _431  and  _432
REMARK  182  A    between atoms: _431  and  _434
REMARK  183  A    between atoms: _434  and  _435
REMARK  184  A    between atoms: _438  and  _440
REMARK  185  A    between atoms: _440  and  _441
REMARK  186  A    between atoms: _440  and  _443
REMARK  187  A    between atoms: _443  and  _444
REMARK  188  A    between atoms: _450  and  _451
REMARK  189  A    between atoms: _456  and  _458
REMARK  190  A    between atoms: _458  and  _459
REMARK  191  A    between atoms: _458  and  _461
REMARK  192  A    between atoms: _461  and  _462
REMARK  193  A    between atoms: _464  and  _466
REMARK  194  A    between atoms: _466  and  _467
REMARK  195  A    between atoms: _466  and  _469
REMARK  196  A    between atoms: _469  and  _470
REMARK  197  A    between atoms: _475  and  _477
REMARK  198  A    between atoms: _477  and  _478
REMARK  199  A    between atoms: _477  and  _480
REMARK  200  A    between atoms: _480  and  _481
REMARK  201  A    between atoms: _484  and  _486
REMARK  202  A    between atoms: _486  and  _487
REMARK  203  A    between atoms: _490  and  _492
REMARK  204  A    between atoms: _492  and  _493
REMARK  205  A    between atoms: _492  and  _495
REMARK  206  A    between atoms: _498  and  _500
REMARK  207  A    between atoms: _500  and  _501
REMARK  208  A    between atoms: _500  and  _503
REMARK  209  A    between atoms: _503  and  _504
REMARK  210  A    between atoms: _504  and  _505
REMARK  211  A    between atoms: _505  and  _506
REMARK  212  A    between atoms: _506  and  _507
REMARK  213  A    between atoms: _511  and  _513
REMARK  214  A    between atoms: _513  and  _514
REMARK  215  A    between atoms: _513  and  _516
REMARK  216  A    between atoms: _516  and  _517
REMARK  217  A    between atoms: _520  and  _522
REMARK  218  A    between atoms: _522  and  _523
REMARK  219  A    between atoms: _522  and  _525
REMARK  220  A    between atoms: _525  and  _526
REMARK  221  A    between atoms: _529  and  _531
REMARK  222  A    between atoms: _531  and  _532
REMARK  223  A    between atoms: _531  and  _534
REMARK  224  A    between atoms: _534  and  _535
REMARK  225  A    between atoms: _538  and  _540
REMARK  226  A    between atoms: _540  and  _541
REMARK  227  A    between atoms: _540  and  _543
REMARK  228  A    between atoms: _543  and  _544
REMARK  229  A    between atoms: _550  and  _552
REMARK  230  A    between atoms: _552  and  _553
REMARK  231  A    between atoms: _555  and  _557
REMARK  232  A    between atoms: _557  and  _558
REMARK  233  A    between atoms: _557  and  _560
REMARK  234  A    between atoms: _560  and  _561
REMARK                            x       y       z     vdW  Elec       q    Type
REMARK                         _______ _______ _______ _____ _____    ______ ____
ROOT
ATOM      1  C   LEU A   6      44.974  39.010  32.632  0.00  0.00    +0.241 C 
ATOM      2  N   MET A   7      45.913  38.206  33.131  0.00  0.00    -0.297 N 
ATOM      3  H   MET A   7      45.839  37.187  32.939  0.00  0.00    +0.150 HD
ATOM      4  O   LEU A   6      44.922  40.214  32.835  0.00  0.00    -0.273 OA
ENDROOT
BRANCH   1   5
ATOM      5  CA  LEU A   6      43.903  38.360  31.814  0.00  0.00    +0.149 C 
BRANCH   5   8
ATOM      6  C   HIS A   5      41.746  38.115  32.908  0.00  0.00    +0.241 C 
ATOM      7  O   HIS A   5      41.824  36.876  32.976  0.00  0.00    -0.273 OA
ATOM      8  N   LEU A   6      42.668  38.886  32.360  0.00  0.00    -0.297 N 
ATOM      9  H   LEU A   6      42.501  39.912  32.319  0.00  0.00    +0.150 HD
BRANCH   6  10
ATOM     10  CA  HIS A   5      40.573  38.846  33.502  0.00  0.00    +0.155 C 
BRANCH  10  12
ATOM     11  C   THR A   4      38.942  37.415  32.431  0.00  0.00    +0.243 C 
ATOM     12  N   HIS A   5      39.429  37.932  33.559  0.00  0.00    -0.297 N 
ATOM     13  H   HIS A   5      39.000  37.688  34.474  0.00  0.00    +0.150 HD
ATOM     14  O   THR A   4      39.328  37.769  31.302  0.00  0.00    -0.273 OA
BRANCH  11  15
ATOM     15  CA  THR A   4      37.884  36.329  32.571  0.00  0.00    +0.176 C 
BRANCH  15  18
ATOM     16  C   VAL A   3      36.150  35.743  30.999  0.00  0.00    +0.241 C 
ATOM     17  O   VAL A   3      35.295  35.871  31.881  0.00  0.00    -0.273 OA
ATOM     18  N   THR A   4      37.451  35.885  31.251  0.00  0.00    -0.295 N 
ATOM     19  H   THR A   4      38.153  35.681  30.511  0.00  0.00    +0.150 HD
BRANCH  16  20
ATOM     20  CA  VAL A   3      35.734  35.362  29.567  0.00  0.00    +0.149 C 
BRANCH  20  22
ATOM     21  C   LEU A   2      35.259  33.029  28.999  0.00  0.00    +0.241 C 
ATOM     22  N   VAL A   3      34.878  34.176  29.563  0.00  0.00    -0.297 N 
ATOM     23  H   VAL A   3      33.943  34.229  30.014  0.00  0.00    +0.150 HD
ATOM     24  O   LEU A   2      36.371  32.873  28.457  0.00  0.00    -0.273 OA
BRANCH  21  25
ATOM     25  CA  LEU A   2      34.257  31.859  29.051  0.00  0.00    +0.149 C 
BRANCH  25  27
ATOM     26  C   TYR A   1      32.993  31.396  27.004  0.00  0.00    +0.239 C 
ATOM     27  N   LEU A   2      34.101  31.277  27.719  0.00  0.00    -0.297 N 
ATOM     28  H   LEU A   2      34.897  30.745  27.314  0.00  0.00    +0.150 HD
ATOM     29  O   TYR A   1      31.976  31.970  27.394  0.00  0.00    -0.274 OA
BRANCH  26  30
ATOM     30  CA  TYR A   1      33.039  30.801  25.634  0.00  0.00    +0.149 C 
BRANCH  30  31
ATOM     31  N   TYR A   1      31.852  29.970  25.473  0.00  0.00    -0.238 NA
ATOM     32  H   TYR A   1      30.909  30.404  25.525  0.00  0.00    +0.142 HD
ENDBRANCH  30  31
BRANCH  30  33
ATOM     33  CB  TYR A   1      33.062  31.952  24.615  0.00  0.00    +0.053 C 
BRANCH  33  34
ATOM     34  CG  TYR A   1      33.154  31.534  23.177  0.00  0.00    -0.020 A 
ATOM     35  CD2 TYR A   1      32.054  30.984  22.521  0.00  0.00    -0.001 A 
ATOM     36  CE2 TYR A   1      32.124  30.613  21.177  0.00  0.00    +0.036 A 
ATOM     37  CZ  TYR A   1      33.291  30.815  20.449  0.00  0.00    +0.134 A 
ATOM     38  CE1 TYR A   1      34.406  31.347  21.062  0.00  0.00    +0.036 A 
ATOM     39  CD1 TYR A   1      34.326  31.723  22.443  0.00  0.00    -0.001 A 
BRANCH  37  40
ATOM     40  OH  TYR A   1      33.326  30.449  19.114  0.00  0.00    -0.506 OA
ATOM     41  HH  TYR A   1      32.443  30.090  18.848  0.00  0.00    +0.292 HD
ENDBRANCH  37  40
ENDBRANCH  33  34
ENDBRANCH  30  33
ENDBRANCH  26  30
ENDBRANCH  25  27
BRANCH  25  42
ATOM     42  CB  LEU A   2      34.783  30.782  30.018  0.00  0.00    +0.029 C 
BRANCH  42  43
ATOM     43  CG  LEU A   2      33.934  29.499  29.977  0.00  0.00    +0.002 C 
ATOM     44  CD2 LEU A   2      32.611  29.741  30.654  0.00  0.00    +0.000 C 
ATOM     45  CD1 LEU A   2      34.660  28.290  30.582  0.00  0.00    +0.000 C 
ENDBRANCH  42  43
ENDBRANCH  25  42
ENDBRANCH  21  25
ENDBRANCH  20  22
BRANCH  20  46
ATOM     46  CB  VAL A   3      34.987  36.600  28.998  0.00  0.00    +0.027 C 
ATOM     47  CG2 VAL A   3      35.920  37.816  29.014  0.00  0.00    +0.002 C 
ATOM     48  CG1 VAL A   3      34.410  36.326  27.611  0.00  0.00    +0.002 C 
ENDBRANCH  20  46
ENDBRANCH  16  20
ENDBRANCH  15  18
BRANCH  15  49
ATOM     49  CB  THR A   4      38.525  35.195  33.365  0.00  0.00    +0.137 C 
ATOM     50  CG2 THR A   4      37.574  34.003  33.476  0.00  0.00    +0.034 C 
BRANCH  49  51
ATOM     51  OG1 THR A   4      39.746  34.819  32.708  0.00  0.00    -0.382 OA
ATOM     52  HG1 THR A   4      40.355  35.598  32.676  0.00  0.00    +0.210 HD
ENDBRANCH  49  51
ENDBRANCH  15  49
ENDBRANCH  11  15
ENDBRANCH  10  12
BRANCH  10  53
ATOM     53  CB  HIS A   5      41.004  39.308  34.889  0.00  0.00    +0.076 C 
BRANCH  53  54
ATOM     54  CG  HIS A   5      40.028  40.230  35.544  0.00  0.00    +0.082 A 
ATOM     55  CD2 HIS A   5      39.237  40.068  36.630  0.00  0.00    +0.115 A 
ATOM     56  NE2 HIS A   5      38.530  41.233  36.789  0.00  0.00    -0.221 NA
ATOM     57  CE1 HIS A   5      38.878  42.081  35.839  0.00  0.00    +0.199 A 
ATOM     58  ND1 HIS A   5      39.798  41.507  35.085  0.00  0.00    -0.227 NA
ENDBRANCH  53  54
ENDBRANCH  10  53
ENDBRANCH   6  10
ENDBRANCH   5   8
BRANCH   5  59
ATOM     59  CB  LEU A   6      44.079  38.818  30.380  0.00  0.00    +0.029 C 
BRANCH  59  60
ATOM     60  CG  LEU A   6      45.355  38.333  29.707  0.00  0.00    +0.002 C 
ATOM     61  CD2 LEU A   6      45.159  36.921  29.226  0.00  0.00    +0.000 C 
ATOM     62  CD1 LEU A   6      45.774  39.273  28.538  0.00  0.00    +0.000 C 
ENDBRANCH  59  60
ENDBRANCH   5  59
ENDBRANCH   1   5
BRANCH   2  63
ATOM     63  CA  MET A   7      47.027  38.670  33.923  0.00  0.00    +0.149 C 
BRANCH  63  64
ATOM     64  C   MET A   7      48.251  38.548  33.045  0.00  0.00    +0.241 C 
ATOM     65  N   GLY A   8      49.256  39.364  33.310  0.00  0.00    -0.295 N 
ATOM     66  H   GLY A   8      49.195  40.005  34.127  0.00  0.00    +0.150 HD
ATOM     67  O   MET A   7      48.283  37.733  32.124  0.00  0.00    -0.273 OA
BRANCH  65  68
ATOM     68  CA  GLY A   8      50.439  39.378  32.480  0.00  0.00    +0.176 C 
BRANCH  68  69
ATOM     69  C   GLY A   8      51.441  38.264  32.729  0.00  0.00    +0.243 C 
ATOM     70  N   ALA A   9      51.401  37.592  33.863  0.00  0.00    -0.297 N 
ATOM     71  H   ALA A   9      50.702  37.825  34.597  0.00  0.00    +0.150 HD
ATOM     72  O   GLY A   8      52.266  38.003  31.891  0.00  0.00    -0.273 OA
BRANCH  70  73
ATOM     73  CA  ALA A   9      52.365  36.512  34.060  0.00  0.00    +0.149 C 
ATOM     74  CB  ALA A   9      53.662  37.068  34.687  0.00  0.00    +0.031 C 
BRANCH  73  75
ATOM     75  C   ALA A   9      51.795  35.479  34.984  0.00  0.00    +0.241 C 
ATOM     76  O   ALA A   9      50.790  35.730  35.623  0.00  0.00    -0.273 OA
ATOM     77  N   ASP A  10      52.438  34.317  35.069  0.00  0.00    -0.297 N 
ATOM     78  H   ASP A  10      53.181  34.069  34.384  0.00  0.00    +0.150 HD
BRANCH  77  79
ATOM     79  CA  ASP A  10      52.083  33.413  36.128  0.00  0.00    +0.160 C 
BRANCH  79  80
ATOM     80  C   ASP A  10      53.246  33.406  37.100  0.00  0.00    +0.241 C 
ATOM     81  N   LEU A  11      53.038  32.753  38.215  0.00  0.00    -0.297 N 
ATOM     82  H   LEU A  11      52.123  32.278  38.354  0.00  0.00    +0.150 HD
ATOM     83  O   ASP A  10      54.286  34.031  36.869  0.00  0.00    -0.273 OA
BRANCH  81  84
ATOM     84  CA  LEU A  11      54.022  32.669  39.250  0.00  0.00    +0.149 C 
BRANCH  84  85
ATOM     85  C   LEU A  11      55.299  31.944  38.806  0.00  0.00    +0.241 C 
ATOM     86  O   LEU A  11      56.379  32.182  39.326  0.00  0.00    -0.273 OA
ATOM     87  N   ASN A  12      55.155  31.019  37.875  0.00  0.00    -0.297 N 
ATOM     88  H   ASN A  12      54.197  30.772  37.554  0.00  0.00    +0.150 HD
BRANCH  87  89
ATOM     89  CA  ASN A  12      56.278  30.344  37.292  0.00  0.00    +0.158 C 
BRANCH  89  90
ATOM     90  C   ASN A  12      57.207  31.382  36.624  0.00  0.00    +0.241 C 
ATOM     91  O   ASN A  12      58.415  31.340  36.813  0.00  0.00    -0.273 OA
ATOM     92  N   ASN A  13      56.647  32.314  35.843  0.00  0.00    -0.298 N 
ATOM     93  H   ASN A  13      55.632  32.248  35.626  0.00  0.00    +0.150 HD
BRANCH  92  94
ATOM     94  CA  ASN A  13      57.426  33.426  35.285  0.00  0.00    +0.146 C 
BRANCH  94  95
ATOM     95  C   ASN A  13      58.078  34.296  36.377  0.00  0.00    +0.227 C 
ATOM     96  O   ASN A  13      59.241  34.643  36.296  0.00  0.00    -0.286 OA
ENDBRANCH  94  95
BRANCH  94  97
ATOM     97  CB  ASN A  13      56.548  34.338  34.407  0.00  0.00    +0.112 C 
BRANCH  97  98
ATOM     98  CG  ASN A  13      55.802  33.578  33.310  0.00  0.00    +0.222 C 
ATOM     99  ND2 ASN A  13      56.317  32.392  32.945  0.00  0.00    -0.329 N 
ATOM    100 HD21 ASN A  13      57.181  32.037  33.403  0.00  0.00    +0.145 HD
ATOM    101 HD22 ASN A  13      55.852  31.829  32.205  0.00  0.00    +0.145 HD
ATOM    102  OD1 ASN A  13      54.770  34.050  32.795  0.00  0.00    -0.275 OA
ENDBRANCH  97  98
ENDBRANCH  94  97
ENDBRANCH  92  94
ENDBRANCH  89  90
BRANCH  89 103
ATOM    103  CB  ASN A  12      55.721  29.388  36.270  0.00  0.00    +0.114 C 
BRANCH 103 104
ATOM    104  CG  ASN A  12      56.483  28.160  36.186  0.00  0.00    +0.222 C 
ATOM    105  OD1 ASN A  12      56.456  27.353  37.098  0.00  0.00    -0.275 OA
ATOM    106  ND2 ASN A  12      57.199  27.988  35.081  0.00  0.00    -0.329 N 
ATOM    107 HD21 ASN A  12      57.775  27.130  34.963  0.00  0.00    +0.145 HD
ATOM    108 HD22 ASN A  12      57.184  28.711  34.334  0.00  0.00    +0.145 HD
ENDBRANCH 103 104
ENDBRANCH  89 103
ENDBRANCH  87  89
ENDBRANCH  84  85
BRANCH  84 109
ATOM    109  CB  LEU A  11      53.401  31.933  40.413  0.00  0.00    +0.029 C 
BRANCH 109 110
ATOM    110  CG  LEU A  11      54.123  32.357  41.666  0.00  0.00    +0.002 C 
ATOM    111  CD2 LEU A  11      53.531  31.735  42.934  0.00  0.00    +0.000 C 
ATOM    112  CD1 LEU A  11      54.134  33.896  41.711  0.00  0.00    +0.000 C 
ENDBRANCH 109 110
ENDBRANCH  84 109
ENDBRANCH  81  84
ENDBRANCH  79  80
BRANCH  79 113
ATOM    113  CB  ASP A  10      51.673  32.018  35.629  0.00  0.00    +0.143 C 
BRANCH 113 114
ATOM    114  CG  ASP A  10      52.762  31.333  34.832  0.00  0.00    +0.367 C 
ATOM    115  OD2 ASP A  10      53.924  31.388  35.250  0.00  0.00    -0.246 OA
ATOM    116  OD1 ASP A  10      52.454  30.720  33.803  0.00  0.00    -0.246 OA
ENDBRANCH 113 114
ENDBRANCH  79 113
ENDBRANCH  77  79
ENDBRANCH  73  75
ENDBRANCH  70  73
ENDBRANCH  68  69
ENDBRANCH  65  68
ENDBRANCH  63  64
BRANCH  63 117
ATOM    117  CB  MET A   7      47.179  37.828  35.190  0.00  0.00    +0.041 C 
BRANCH 117 118
ATOM    118  CG  MET A   7      46.495  38.410  36.429  0.00  0.00    +0.060 C 
BRANCH 118 119
ATOM    119  SD  MET A   7      44.718  38.476  36.207  0.00  0.00    -0.139 S 
ATOM    120  CE  MET A   7      44.328  36.768  35.810  0.00  0.00    +0.069 C 
ENDBRANCH 118 119
ENDBRANCH 117 118
ENDBRANCH  63 117
ENDBRANCH   2  63
TORSDOF 49
REMARK  Name = ../refined-set-2016/3iph/3iph_pocket.pdb
REMARK  234 active torsions:
REMARK  status: ('A' for Active; 'I' for Inactive)
REMARK    1  A    between atoms: _1  and  _3
REMARK    2  A    between atoms: _3  and  _4
REMARK    3  A    between atoms: _3  and  _6
REMARK    4  A    between atoms: _9  and  _11
REMARK    5  A    between atoms: _11  and  _12
REMARK    6  A    between atoms: _14  and  _16
REMARK    7  A    between atoms: _16  and  _17
REMARK    8  A    between atoms: _16  and  _19
REMARK    9  A    between atoms: _19  and  _20
REMARK   10  A    between atoms: _22  and  _24
REMARK   11  A    between atoms: _24  and  _25
REMARK   12  A    between atoms: _27  and  _29
REMARK   13  A    between atoms: _29  and  _30
REMARK   14  A    between atoms: _33  and  _35
REMARK   15  A    between atoms: _35  and  _36
REMARK   16  A    between atoms: _35  and  _38
REMARK   17  A    between atoms: _38  and  _39
REMARK   18  A    between atoms: _44  and  _45
REMARK   19  A    between atoms: _47  and  _49
REMARK   20  A    between atoms: _49  and  _50
REMARK   21  A    between atoms: _49  and  _52
REMARK   22  A    between atoms: _52  and  _53
REMARK   23  A    between atoms: _55  and  _57
REMARK   24  A    between atoms: _57  and  _58
REMARK   25  A    between atoms: _57  and  _60
REMARK   26  A    between atoms: _63  and  _65
REMARK   27  A    between atoms: _65  and  _66
REMARK   28  A    between atoms: _65  and  _68
REMARK   29  A    between atoms: _70  and  _72
REMARK   30  A    between atoms: _72  and  _73
REMARK   31  A    between atoms: _76  and  _78
REMARK   32  A    between atoms: _78  and  _79
REMARK   33  A    between atoms: _78  and  _81
REMARK   34  A    between atoms: _81  and  _82
REMARK   35  A    between atoms: _82  and  _83
REMARK   36  A    between atoms: _83  and  _84
REMARK   37  A    between atoms: _93  and  _95
REMARK   38  A    between atoms: _95  and  _96
REMARK   39  A    between atoms: _95  and  _98
REMARK   40  A    between atoms: _101  and  _103
REMARK   41  A    between atoms: _103  and  _104
REMARK   42  A    between atoms: _107  and  _109
REMARK   43  A    between atoms: _109  and  _110
REMARK   44  A    between atoms: _109  and  _112
REMARK   45  A    between atoms: _115  and  _117
REMARK   46  A    between atoms: _117  and  _118
REMARK   47  A    between atoms: _117  and  _120
REMARK   48  A    between atoms: _120  and  _121
REMARK   49  A    between atoms: _121  and  _122
REMARK   50  A    between atoms: _122  and  _123
REMARK   51  A    between atoms: _123  and  _124
REMARK   52  A    between atoms: _128  and  _130
REMARK   53  A    between atoms: _130  and  _131
REMARK   54  A    between atoms: _130  and  _133
REMARK   55  A    between atoms: _133  and  _134
REMARK   56  A    between atoms: _134  and  _135
REMARK   57  A    between atoms: _135  and  _136
REMARK   58  A    between atoms: _136  and  _137
REMARK   59  A    between atoms: _141  and  _143
REMARK   60  A    between atoms: _143  and  _144
REMARK   61  A    between atoms: _143  and  _146
REMARK   62  A    between atoms: _146  and  _147
REMARK   63  A    between atoms: _150  and  _152
REMARK   64  A    between atoms: _152  and  _153
REMARK   65  A    between atoms: _152  and  _155
REMARK   66  A    between atoms: _155  and  _156
REMARK   67  A    between atoms: _156  and  _157
REMARK   68  A    between atoms: _157  and  _158
REMARK   69  A    between atoms: _167  and  _169
REMARK   70  A    between atoms: _169  and  _170
REMARK   71  A    between atoms: _169  and  _172
REMARK   72  A    between atoms: _172  and  _173
REMARK   73  A    between atoms: _173  and  _174
REMARK   74  A    between atoms: _174  and  _175
REMARK   75  A    between atoms: _184  and  _186
REMARK   76  A    between atoms: _186  and  _187
REMARK   77  A    between atoms: _186  and  _189
REMARK   78  A    between atoms: _189  and  _190
REMARK   79  A    between atoms: _190  and  _191
REMARK   80  A    between atoms: _194  and  _196
REMARK   81  A    between atoms: _196  and  _197
REMARK   82  A    between atoms: _196  and  _199
REMARK   83  A    between atoms: _199  and  _200
REMARK   84  A    between atoms: _203  and  _205
REMARK   85  A    between atoms: _205  and  _206
REMARK   86  A    between atoms: _205  and  _208
REMARK   87  A    between atoms: _208  and  _209
REMARK   88  A    between atoms: _209  and  _210
REMARK   89  A    between atoms: _210  and  _211
REMARK   90  A    between atoms: _220  and  _222
REMARK   91  A    between atoms: _222  and  _223
REMARK   92  A    between atoms: _222  and  _225
REMARK   93  A    between atoms: _225  and  _226
REMARK   94  A    between atoms: _229  and  _231
REMARK   95  A    between atoms: _231  and  _232
REMARK   96  A    between atoms: _231  and  _234
REMARK   97  A    between atoms: _234  and  _235
REMARK   98  A    between atoms: _238  and  _240
REMARK   99  A    between atoms: _240  and  _241
REMARK  100  A    between atoms: _240  and  _243
REMARK  101  A    between atoms: _243  and  _244
REMARK  102  A    between atoms: _244  and  _245
REMARK  103  A    between atoms: _245  and  _246
REMARK  104  A    between atoms: _246  and  _247
REMARK  105  A    between atoms: _251  and  _253
REMARK  106  A    between atoms: _253  and  _254
REMARK  107  A    between atoms: _253  and  _256
REMARK  108  A    between atoms: _256  and  _257
REMARK  109  A    between atoms: _257  and  _258
REMARK  110  A    between atoms: _260  and  _262
REMARK  111  A    between atoms: _262  and  _263
REMARK  112  A    between atoms: _262  and  _265
REMARK  113  A    between atoms: _268  and  _270
REMARK  114  A    between atoms: _270  and  _271
REMARK  115  A    between atoms: _270  and  _273
REMARK  116  A    between atoms: _273  and  _274
REMARK  117  A    between atoms: _277  and  _279
REMARK  118  A    between atoms: _279  and  _280
REMARK  119  A    between atoms: _282  and  _284
REMARK  120  A    between atoms: _284  and  _285
REMARK  121  A    between atoms: _284  and  _287
REMARK  122  A    between atoms: _287  and  _288
REMARK  123  A    between atoms: _291  and  _293
REMARK  124  A    between atoms: _293  and  _294
REMARK  125  A    between atoms: _293  and  _296
REMARK  126  A    between atoms: _296  and  _297
REMARK  127  A    between atoms: _300  and  _302
REMARK  128  A    between atoms: _302  and  _303
REMARK  129  A    between atoms: _302  and  _305
REMARK  130  A    between atoms: _305  and  _306
REMARK  131  A    between atoms: _309  and  _311
REMARK  132  A    between atoms: _311  and  _312
REMARK  133  A    between atoms: _311  and  _314
REMARK  134  A    between atoms: _314  and  _315
REMARK  135  A    between atoms: _320  and  _321
REMARK  136  A    between atoms: _323  and  _325
REMARK  137  A    between atoms: _325  and  _326
REMARK  138  A    between atoms: _325  and  _328
REMARK  139  A    between atoms: _328  and  _329
REMARK  140  A    between atoms: _332  and  _334
REMARK  141  A    between atoms: _334  and  _335
REMARK  142  A    between atoms: _334  and  _337
REMARK  143  A    between atoms: _340  and  _342
REMARK  144  A    between atoms: _342  and  _343
REMARK  145  A    between atoms: _342  and  _345
REMARK  146  A    between atoms: _345  and  _346
REMARK  147  A    between atoms: _349  and  _351
REMARK  148  A    between atoms: _351  and  _352
REMARK  149  A    between atoms: _351  and  _354
REMARK  150  A    between atoms: _354  and  _355
REMARK  151  A    between atoms: _360  and  _362
REMARK  152  A    between atoms: _362  and  _363
REMARK  153  A    between atoms: _362  and  _365
REMARK  154  A    between atoms: _365  and  _366
REMARK  155  A    between atoms: _369  and  _371
REMARK  156  A    between atoms: _371  and  _372
REMARK  157  A    between atoms: _371  and  _374
REMARK  158  A    between atoms: _374  and  _375
REMARK  159  A    between atoms: _375  and  _376
REMARK  160  A    between atoms: _378  and  _380
REMARK  161  A    between atoms: _380  and  _381
REMARK  162  A    between atoms: _383  and  _385
REMARK  163  A    between atoms: _385  and  _386
REMARK  164  A    between atoms: _389  and  _391
REMARK  165  A    between atoms: _391  and  _392
REMARK  166  A    between atoms: _391  and  _394
REMARK  167  A    between atoms: _394  and  _395
REMARK  168  A    between atoms: _398  and  _400
REMARK  169  A    between atoms: _400  and  _401
REMARK  170  A    between atoms: _400  and  _403
REMARK  171  A    between atoms: _403  and  _404
REMARK  172  A    between atoms: _407  and  _409
REMARK  173  A    between atoms: _409  and  _410
REMARK  174  A    between atoms: _409  and  _412
REMARK  175  A    between atoms: _412  and  _413
REMARK  176  A    between atoms: _418  and  _420
REMARK  177  A    between atoms: _420  and  _421
REMARK  178  A    between atoms: _420  and  _423
REMARK  179  A    between atoms: _423  and  _424
REMARK  180  A    between atoms: _429  and  _431
REMARK  181  A    between atoms: _431  and  _432
REMARK  182  A    between atoms: _431  and  _434
REMARK  183  A    between atoms: _434  and  _435
REMARK  184  A    between atoms: _438  and  _440
REMARK  185  A    between atoms: _440  and  _441
REMARK  186  A    between atoms: _440  and  _443
REMARK  187  A    between atoms: _443  and  _444
REMARK  188  A    between atoms: _450  and  _451
REMARK  189  A    between atoms: _456  and  _458
REMARK  190  A    between atoms: _458  and  _459
REMARK  191  A    between atoms: _458  and  _461
REMARK  192  A    between atoms: _461  and  _462
REMARK  193  A    between atoms: _464  and  _466
REMARK  194  A    between atoms: _466  and  _467
REMARK  195  A    between atoms: _466  and  _469
REMARK  196  A    between atoms: _469  and  _470
REMARK  197  A    between atoms: _475  and  _477
REMARK  198  A    between atoms: _477  and  _478
REMARK  199  A    between atoms: _477  and  _480
REMARK  200  A    between atoms: _480  and  _481
REMARK  201  A    between atoms: _484  and  _486
REMARK  202  A    between atoms: _486  and  _487
REMARK  203  A    between atoms: _490  and  _492
REMARK  204  A    between atoms: _492  and  _493
REMARK  205  A    between atoms: _492  and  _495
REMARK  206  A    between atoms: _498  and  _500
REMARK  207  A    between atoms: _500  and  _501
REMARK  208  A    between atoms: _500  and  _503
REMARK  209  A    between atoms: _503  and  _504
REMARK  210  A    between atoms: _504  and  _505
REMARK  211  A    between atoms: _505  and  _506
REMARK  212  A    between atoms: _506  and  _507
REMARK  213  A    between atoms: _511  and  _513
REMARK  214  A    between atoms: _513  and  _514
REMARK  215  A    between atoms: _513  and  _516
REMARK  216  A    between atoms: _516  and  _517
REMARK  217  A    between atoms: _520  and  _522
REMARK  218  A    between atoms: _522  and  _523
REMARK  219  A    between atoms: _522  and  _525
REMARK  220  A    between atoms: _525  and  _526
REMARK  221  A    between atoms: _529  and  _531
REMARK  222  A    between atoms: _531  and  _532
REMARK  223  A    between atoms: _531  and  _534
REMARK  224  A    between atoms: _534  and  _535
REMARK  225  A    between atoms: _538  and  _540
REMARK  226  A    between atoms: _540  and  _541
REMARK  227  A    between atoms: _540  and  _543
REMARK  228  A    between atoms: _543  and  _544
REMARK  229  A    between atoms: _550  and  _552
REMARK  230  A    between atoms: _552  and  _553
REMARK  231  A    between atoms: _555  and  _557
REMARK  232  A    between atoms: _557  and  _558
REMARK  233  A    between atoms: _557  and  _560
REMARK  234  A    between atoms: _560  and  _561
REMARK                            x       y       z     vdW  Elec       q    Type
REMARK                         _______ _______ _______ _____ _____    ______ ____
ROOT
ATOM      1  CA  ILE A   1      35.895  23.355  46.620  0.00  0.00    +0.133 C 
ENDROOT
BRANCH   1   2
ATOM      2  N   ILE A   1      35.249  23.648  47.869  0.00  0.00    -0.239 NA
ATOM      3  H   ILE A   1      35.471  24.526  48.380  0.00  0.00    +0.142 HD
ENDBRANCH   1   2
BRANCH   1   4
ATOM      4  C   ILE A   1      37.345  23.068  46.912  0.00  0.00    +0.224 C 
ATOM      5  O   ILE A   1      37.989  23.746  47.734  0.00  0.00    -0.287 OA
ENDBRANCH   1   4
BRANCH   1   6
ATOM      6  CB  ILE A   1      35.746  24.499  45.613  0.00  0.00    +0.023 C 
ATOM      7  CG2 ILE A   1      36.540  24.189  44.350  0.00  0.00    +0.002 C 
BRANCH   6   8
ATOM      8  CG1 ILE A   1      34.293  24.582  45.207  0.00  0.00    +0.002 C 
ATOM      9  CD1 ILE A   1      33.865  25.968  44.777  0.00  0.00    +0.000 C 
ENDBRANCH   6   8
ENDBRANCH   1   6
TORSDOF 4
REMARK  Name = ../refined-set-2016/3iph/3iph_pocket.pdb
REMARK  234 active torsions:
REMARK  status: ('A' for Active; 'I' for Inactive)
REMARK    1  A    between atoms: _1  and  _3
REMARK    2  A    between atoms: _3  and  _4
REMARK    3  A    between atoms: _3  and  _6
REMARK    4  A    between atoms: _9  and  _11
REMARK    5  A    between atoms: _11  and  _12
REMARK    6  A    between atoms: _14  and  _16
REMARK    7  A    between atoms: _16  and  _17
REMARK    8  A    between atoms: _16  and  _19
REMARK    9  A    between atoms: _19  and  _20
REMARK   10  A    between atoms: _22  and  _24
REMARK   11  A    between atoms: _24  and  _25
REMARK   12  A    between atoms: _27  and  _29
REMARK   13  A    between atoms: _29  and  _30
REMARK   14  A    between atoms: _33  and  _35
REMARK   15  A    between atoms: _35  and  _36
REMARK   16  A    between atoms: _35  and  _38
REMARK   17  A    between atoms: _38  and  _39
REMARK   18  A    between atoms: _44  and  _45
REMARK   19  A    between atoms: _47  and  _49
REMARK   20  A    between atoms: _49  and  _50
REMARK   21  A    between atoms: _49  and  _52
REMARK   22  A    between atoms: _52  and  _53
REMARK   23  A    between atoms: _55  and  _57
REMARK   24  A    between atoms: _57  and  _58
REMARK   25  A    between atoms: _57  and  _60
REMARK   26  A    between atoms: _63  and  _65
REMARK   27  A    between atoms: _65  and  _66
REMARK   28  A    between atoms: _65  and  _68
REMARK   29  A    between atoms: _70  and  _72
REMARK   30  A    between atoms: _72  and  _73
REMARK   31  A    between atoms: _76  and  _78
REMARK   32  A    between atoms: _78  and  _79
REMARK   33  A    between atoms: _78  and  _81
REMARK   34  A    between atoms: _81  and  _82
REMARK   35  A    between atoms: _82  and  _83
REMARK   36  A    between atoms: _83  and  _84
REMARK   37  A    between atoms: _93  and  _95
REMARK   38  A    between atoms: _95  and  _96
REMARK   39  A    between atoms: _95  and  _98
REMARK   40  A    between atoms: _101  and  _103
REMARK   41  A    between atoms: _103  and  _104
REMARK   42  A    between atoms: _107  and  _109
REMARK   43  A    between atoms: _109  and  _110
REMARK   44  A    between atoms: _109  and  _112
REMARK   45  A    between atoms: _115  and  _117
REMARK   46  A    between atoms: _117  and  _118
REMARK   47  A    between atoms: _117  and  _120
REMARK   48  A    between atoms: _120  and  _121
REMARK   49  A    between atoms: _121  and  _122
REMARK   50  A    between atoms: _122  and  _123
REMARK   51  A    between atoms: _123  and  _124
REMARK   52  A    between atoms: _128  and  _130
REMARK   53  A    between atoms: _130  and  _131
REMARK   54  A    between atoms: _130  and  _133
REMARK   55  A    between atoms: _133  and  _134
REMARK   56  A    between atoms: _134  and  _135
REMARK   57  A    between atoms: _135  and  _136
REMARK   58  A    between atoms: _136  and  _137
REMARK   59  A    between atoms: _141  and  _143
REMARK   60  A    between atoms: _143  and  _144
REMARK   61  A    between atoms: _143  and  _146
REMARK   62  A    between atoms: _146  and  _147
REMARK   63  A    between atoms: _150  and  _152
REMARK   64  A    between atoms: _152  and  _153
REMARK   65  A    between atoms: _152  and  _155
REMARK   66  A    between atoms: _155  and  _156
REMARK   67  A    between atoms: _156  and  _157
REMARK   68  A    between atoms: _157  and  _158
REMARK   69  A    between atoms: _167  and  _169
REMARK   70  A    between atoms: _169  and  _170
REMARK   71  A    between atoms: _169  and  _172
REMARK   72  A    between atoms: _172  and  _173
REMARK   73  A    between atoms: _173  and  _174
REMARK   74  A    between atoms: _174  and  _175
REMARK   75  A    between atoms: _184  and  _186
REMARK   76  A    between atoms: _186  and  _187
REMARK   77  A    between atoms: _186  and  _189
REMARK   78  A    between atoms: _189  and  _190
REMARK   79  A    between atoms: _190  and  _191
REMARK   80  A    between atoms: _194  and  _196
REMARK   81  A    between atoms: _196  and  _197
REMARK   82  A    between atoms: _196  and  _199
REMARK   83  A    between atoms: _199  and  _200
REMARK   84  A    between atoms: _203  and  _205
REMARK   85  A    between atoms: _205  and  _206
REMARK   86  A    between atoms: _205  and  _208
REMARK   87  A    between atoms: _208  and  _209
REMARK   88  A    between atoms: _209  and  _210
REMARK   89  A    between atoms: _210  and  _211
REMARK   90  A    between atoms: _220  and  _222
REMARK   91  A    between atoms: _222  and  _223
REMARK   92  A    between atoms: _222  and  _225
REMARK   93  A    between atoms: _225  and  _226
REMARK   94  A    between atoms: _229  and  _231
REMARK   95  A    between atoms: _231  and  _232
REMARK   96  A    between atoms: _231  and  _234
REMARK   97  A    between atoms: _234  and  _235
REMARK   98  A    between atoms: _238  and  _240
REMARK   99  A    between atoms: _240  and  _241
REMARK  100  A    between atoms: _240  and  _243
REMARK  101  A    between atoms: _243  and  _244
REMARK  102  A    between atoms: _244  and  _245
REMARK  103  A    between atoms: _245  and  _246
REMARK  104  A    between atoms: _246  and  _247
REMARK  105  A    between atoms: _251  and  _253
REMARK  106  A    between atoms: _253  and  _254
REMARK  107  A    between atoms: _253  and  _256
REMARK  108  A    between atoms: _256  and  _257
REMARK  109  A    between atoms: _257  and  _258
REMARK  110  A    between atoms: _260  and  _262
REMARK  111  A    between atoms: _262  and  _263
REMARK  112  A    between atoms: _262  and  _265
REMARK  113  A    between atoms: _268  and  _270
REMARK  114  A    between atoms: _270  and  _271
REMARK  115  A    between atoms: _270  and  _273
REMARK  116  A    between atoms: _273  and  _274
REMARK  117  A    between atoms: _277  and  _279
REMARK  118  A    between atoms: _279  and  _280
REMARK  119  A    between atoms: _282  and  _284
REMARK  120  A    between atoms: _284  and  _285
REMARK  121  A    between atoms: _284  and  _287
REMARK  122  A    between atoms: _287  and  _288
REMARK  123  A    between atoms: _291  and  _293
REMARK  124  A    between atoms: _293  and  _294
REMARK  125  A    between atoms: _293  and  _296
REMARK  126  A    between atoms: _296  and  _297
REMARK  127  A    between atoms: _300  and  _302
REMARK  128  A    between atoms: _302  and  _303
REMARK  129  A    between atoms: _302  and  _305
REMARK  130  A    between atoms: _305  and  _306
REMARK  131  A    between atoms: _309  and  _311
REMARK  132  A    between atoms: _311  and  _312
REMARK  133  A    between atoms: _311  and  _314
REMARK  134  A    between atoms: _314  and  _315
REMARK  135  A    between atoms: _320  and  _321
REMARK  136  A    between atoms: _323  and  _325
REMARK  137  A    between atoms: _325  and  _326
REMARK  138  A    between atoms: _325  and  _328
REMARK  139  A    between atoms: _328  and  _329
REMARK  140  A    between atoms: _332  and  _334
REMARK  141  A    between atoms: _334  and  _335
REMARK  142  A    between atoms: _334  and  _337
REMARK  143  A    between atoms: _340  and  _342
REMARK  144  A    between atoms: _342  and  _343
REMARK  145  A    between atoms: _342  and  _345
REMARK  146  A    between atoms: _345  and  _346
REMARK  147  A    between atoms: _349  and  _351
REMARK  148  A    between atoms: _351  and  _352
REMARK  149  A    between atoms: _351  and  _354
REMARK  150  A    between atoms: _354  and  _355
REMARK  151  A    between atoms: _360  and  _362
REMARK  152  A    between atoms: _362  and  _363
REMARK  153  A    between atoms: _362  and  _365
REMARK  154  A    between atoms: _365  and  _366
REMARK  155  A    between atoms: _369  and  _371
REMARK  156  A    between atoms: _371  and  _372
REMARK  157  A    between atoms: _371  and  _374
REMARK  158  A    between atoms: _374  and  _375
REMARK  159  A    between atoms: _375  and  _376
REMARK  160  A    between atoms: _378  and  _380
REMARK  161  A    between atoms: _380  and  _381
REMARK  162  A    between atoms: _383  and  _385
REMARK  163  A    between atoms: _385  and  _386
REMARK  164  A    between atoms: _389  and  _391
REMARK  165  A    between atoms: _391  and  _392
REMARK  166  A    between atoms: _391  and  _394
REMARK  167  A    between atoms: _394  and  _395
REMARK  168  A    between atoms: _398  and  _400
REMARK  169  A    between atoms: _400  and  _401
REMARK  170  A    between atoms: _400  and  _403
REMARK  171  A    between atoms: _403  and  _404
REMARK  172  A    between atoms: _407  and  _409
REMARK  173  A    between atoms: _409  and  _410
REMARK  174  A    between atoms: _409  and  _412
REMARK  175  A    between atoms: _412  and  _413
REMARK  176  A    between atoms: _418  and  _420
REMARK  177  A    between atoms: _420  and  _421
REMARK  178  A    between atoms: _420  and  _423
REMARK  179  A    between atoms: _423  and  _424
REMARK  180  A    between atoms: _429  and  _431
REMARK  181  A    between atoms: _431  and  _432
REMARK  182  A    between atoms: _431  and  _434
REMARK  183  A    between atoms: _434  and  _435
REMARK  184  A    between atoms: _438  and  _440
REMARK  185  A    between atoms: _440  and  _441
REMARK  186  A    between atoms: _440  and  _443
REMARK  187  A    between atoms: _443  and  _444
REMARK  188  A    between atoms: _450  and  _451
REMARK  189  A    between atoms: _456  and  _458
REMARK  190  A    between atoms: _458  and  _459
REMARK  191  A    between atoms: _458  and  _461
REMARK  192  A    between atoms: _461  and  _462
REMARK  193  A    between atoms: _464  and  _466
REMARK  194  A    between atoms: _466  and  _467
REMARK  195  A    between atoms: _466  and  _469
REMARK  196  A    between atoms: _469  and  _470
REMARK  197  A    between atoms: _475  and  _477
REMARK  198  A    between atoms: _477  and  _478
REMARK  199  A    between atoms: _477  and  _480
REMARK  200  A    between atoms: _480  and  _481
REMARK  201  A    between atoms: _484  and  _486
REMARK  202  A    between atoms: _486  and  _487
REMARK  203  A    between atoms: _490  and  _492
REMARK  204  A    between atoms: _492  and  _493
REMARK  205  A    between atoms: _492  and  _495
REMARK  206  A    between atoms: _498  and  _500
REMARK  207  A    between atoms: _500  and  _501
REMARK  208  A    between atoms: _500  and  _503
REMARK  209  A    between atoms: _503  and  _504
REMARK  210  A    between atoms: _504  and  _505
REMARK  211  A    between atoms: _505  and  _506
REMARK  212  A    between atoms: _506  and  _507
REMARK  213  A    between atoms: _511  and  _513
REMARK  214  A    between atoms: _513  and  _514
REMARK  215  A    between atoms: _513  and  _516
REMARK  216  A    between atoms: _516  and  _517
REMARK  217  A    between atoms: _520  and  _522
REMARK  218  A    between atoms: _522  and  _523
REMARK  219  A    between atoms: _522  and  _525
REMARK  220  A    between atoms: _525  and  _526
REMARK  221  A    between atoms: _529  and  _531
REMARK  222  A    between atoms: _531  and  _532
REMARK  223  A    between atoms: _531  and  _534
REMARK  224  A    between atoms: _534  and  _535
REMARK  225  A    between atoms: _538  and  _540
REMARK  226  A    between atoms: _540  and  _541
REMARK  227  A    between atoms: _540  and  _543
REMARK  228  A    between atoms: _543  and  _544
REMARK  229  A    between atoms: _550  and  _552
REMARK  230  A    between atoms: _552  and  _553
REMARK  231  A    between atoms: _555  and  _557
REMARK  232  A    between atoms: _557  and  _558
REMARK  233  A    between atoms: _557  and  _560
REMARK  234  A    between atoms: _560  and  _561
REMARK                            x       y       z     vdW  Elec       q    Type
REMARK                         _______ _______ _______ _____ _____    ______ ____
ROOT
ATOM      1  CB  HIS A   1      43.050  23.888  44.129  0.00  0.00    +0.072 C 
ENDROOT
BRANCH   1   2
ATOM      2  CG  HIS A   1      43.598  24.300  42.804  0.00  0.00    +0.082 A 
ATOM      3  CD2 HIS A   1      43.831  25.519  42.262  0.00  0.00    +0.115 A 
ATOM      4  NE2 HIS A   1      44.318  25.306  40.994  0.00  0.00    -0.221 NA
ATOM      5  CE1 HIS A   1      44.374  24.005  40.763  0.00  0.00    +0.199 A 
ATOM      6  ND1 HIS A   1      43.944  23.376  41.842  0.00  0.00    -0.227 NA
ENDBRANCH   1   2
BRANCH   1   7
ATOM      7  CA  HIS A   1      41.935  22.849  43.999  0.00  0.00    +0.139 C 
BRANCH   7   8
ATOM      8  N   HIS A   1      41.231  22.638  45.235  0.00  0.00    -0.239 NA
ATOM      9  H   HIS A   1      41.644  22.916  46.148  0.00  0.00    +0.142 HD
ENDBRANCH   7   8
BRANCH   7  10
ATOM     10  C   HIS A   1      42.473  21.492  43.502  0.00  0.00    +0.224 C 
ATOM     11  O   HIS A   1      42.137  21.032  42.388  0.00  0.00    -0.287 OA
ENDBRANCH   7  10
ENDBRANCH   1   7
TORSDOF 4
REMARK  Name = ../refined-set-2016/3iph/3iph_pocket.pdb
REMARK  234 active torsions:
REMARK  status: ('A' for Active; 'I' for Inactive)
REMARK    1  A    between atoms: _1  and  _3
REMARK    2  A    between atoms: _3  and  _4
REMARK    3  A    between atoms: _3  and  _6
REMARK    4  A    between atoms: _9  and  _11
REMARK    5  A    between atoms: _11  and  _12
REMARK    6  A    between atoms: _14  and  _16
REMARK    7  A    between atoms: _16  and  _17
REMARK    8  A    between atoms: _16  and  _19
REMARK    9  A    between atoms: _19  and  _20
REMARK   10  A    between atoms: _22  and  _24
REMARK   11  A    between atoms: _24  and  _25
REMARK   12  A    between atoms: _27  and  _29
REMARK   13  A    between atoms: _29  and  _30
REMARK   14  A    between atoms: _33  and  _35
REMARK   15  A    between atoms: _35  and  _36
REMARK   16  A    between atoms: _35  and  _38
REMARK   17  A    between atoms: _38  and  _39
REMARK   18  A    between atoms: _44  and  _45
REMARK   19  A    between atoms: _47  and  _49
REMARK   20  A    between atoms: _49  and  _50
REMARK   21  A    between atoms: _49  and  _52
REMARK   22  A    between atoms: _52  and  _53
REMARK   23  A    between atoms: _55  and  _57
REMARK   24  A    between atoms: _57  and  _58
REMARK   25  A    between atoms: _57  and  _60
REMARK   26  A    between atoms: _63  and  _65
REMARK   27  A    between atoms: _65  and  _66
REMARK   28  A    between atoms: _65  and  _68
REMARK   29  A    between atoms: _70  and  _72
REMARK   30  A    between atoms: _72  and  _73
REMARK   31  A    between atoms: _76  and  _78
REMARK   32  A    between atoms: _78  and  _79
REMARK   33  A    between atoms: _78  and  _81
REMARK   34  A    between atoms: _81  and  _82
REMARK   35  A    between atoms: _82  and  _83
REMARK   36  A    between atoms: _83  and  _84
REMARK   37  A    between atoms: _93  and  _95
REMARK   38  A    between atoms: _95  and  _96
REMARK   39  A    between atoms: _95  and  _98
REMARK   40  A    between atoms: _101  and  _103
REMARK   41  A    between atoms: _103  and  _104
REMARK   42  A    between atoms: _107  and  _109
REMARK   43  A    between atoms: _109  and  _110
REMARK   44  A    between atoms: _109  and  _112
REMARK   45  A    between atoms: _115  and  _117
REMARK   46  A    between atoms: _117  and  _118
REMARK   47  A    between atoms: _117  and  _120
REMARK   48  A    between atoms: _120  and  _121
REMARK   49  A    between atoms: _121  and  _122
REMARK   50  A    between atoms: _122  and  _123
REMARK   51  A    between atoms: _123  and  _124
REMARK   52  A    between atoms: _128  and  _130
REMARK   53  A    between atoms: _130  and  _131
REMARK   54  A    between atoms: _130  and  _133
REMARK   55  A    between atoms: _133  and  _134
REMARK   56  A    between atoms: _134  and  _135
REMARK   57  A    between atoms: _135  and  _136
REMARK   58  A    between atoms: _136  and  _137
REMARK   59  A    between atoms: _141  and  _143
REMARK   60  A    between atoms: _143  and  _144
REMARK   61  A    between atoms: _143  and  _146
REMARK   62  A    between atoms: _146  and  _147
REMARK   63  A    between atoms: _150  and  _152
REMARK   64  A    between atoms: _152  and  _153
REMARK   65  A    between atoms: _152  and  _155
REMARK   66  A    between atoms: _155  and  _156
REMARK   67  A    between atoms: _156  and  _157
REMARK   68  A    between atoms: _157  and  _158
REMARK   69  A    between atoms: _167  and  _169
REMARK   70  A    between atoms: _169  and  _170
REMARK   71  A    between atoms: _169  and  _172
REMARK   72  A    between atoms: _172  and  _173
REMARK   73  A    between atoms: _173  and  _174
REMARK   74  A    between atoms: _174  and  _175
REMARK   75  A    between atoms: _184  and  _186
REMARK   76  A    between atoms: _186  and  _187
REMARK   77  A    between atoms: _186  and  _189
REMARK   78  A    between atoms: _189  and  _190
REMARK   79  A    between atoms: _190  and  _191
REMARK   80  A    between atoms: _194  and  _196
REMARK   81  A    between atoms: _196  and  _197
REMARK   82  A    between atoms: _196  and  _199
REMARK   83  A    between atoms: _199  and  _200
REMARK   84  A    between atoms: _203  and  _205
REMARK   85  A    between atoms: _205  and  _206
REMARK   86  A    between atoms: _205  and  _208
REMARK   87  A    between atoms: _208  and  _209
REMARK   88  A    between atoms: _209  and  _210
REMARK   89  A    between atoms: _210  and  _211
REMARK   90  A    between atoms: _220  and  _222
REMARK   91  A    between atoms: _222  and  _223
REMARK   92  A    between atoms: _222  and  _225
REMARK   93  A    between atoms: _225  and  _226
REMARK   94  A    between atoms: _229  and  _231
REMARK   95  A    between atoms: _231  and  _232
REMARK   96  A    between atoms: _231  and  _234
REMARK   97  A    between atoms: _234  and  _235
REMARK   98  A    between atoms: _238  and  _240
REMARK   99  A    between atoms: _240  and  _241
REMARK  100  A    between atoms: _240  and  _243
REMARK  101  A    between atoms: _243  and  _244
REMARK  102  A    between atoms: _244  and  _245
REMARK  103  A    between atoms: _245  and  _246
REMARK  104  A    between atoms: _246  and  _247
REMARK  105  A    between atoms: _251  and  _253
REMARK  106  A    between atoms: _253  and  _254
REMARK  107  A    between atoms: _253  and  _256
REMARK  108  A    between atoms: _256  and  _257
REMARK  109  A    between atoms: _257  and  _258
REMARK  110  A    between atoms: _260  and  _262
REMARK  111  A    between atoms: _262  and  _263
REMARK  112  A    between atoms: _262  and  _265
REMARK  113  A    between atoms: _268  and  _270
REMARK  114  A    between atoms: _270  and  _271
REMARK  115  A    between atoms: _270  and  _273
REMARK  116  A    between atoms: _273  and  _274
REMARK  117  A    between atoms: _277  and  _279
REMARK  118  A    between atoms: _279  and  _280
REMARK  119  A    between atoms: _282  and  _284
REMARK  120  A    between atoms: _284  and  _285
REMARK  121  A    between atoms: _284  and  _287
REMARK  122  A    between atoms: _287  and  _288
REMARK  123  A    between atoms: _291  and  _293
REMARK  124  A    between atoms: _293  and  _294
REMARK  125  A    between atoms: _293  and  _296
REMARK  126  A    between atoms: _296  and  _297
REMARK  127  A    between atoms: _300  and  _302
REMARK  128  A    between atoms: _302  and  _303
REMARK  129  A    between atoms: _302  and  _305
REMARK  130  A    between atoms: _305  and  _306
REMARK  131  A    between atoms: _309  and  _311
REMARK  132  A    between atoms: _311  and  _312
REMARK  133  A    between atoms: _311  and  _314
REMARK  134  A    between atoms: _314  and  _315
REMARK  135  A    between atoms: _320  and  _321
REMARK  136  A    between atoms: _323  and  _325
REMARK  137  A    between atoms: _325  and  _326
REMARK  138  A    between atoms: _325  and  _328
REMARK  139  A    between atoms: _328  and  _329
REMARK  140  A    between atoms: _332  and  _334
REMARK  141  A    between atoms: _334  and  _335
REMARK  142  A    between atoms: _334  and  _337
REMARK  143  A    between atoms: _340  and  _342
REMARK  144  A    between atoms: _342  and  _343
REMARK  145  A    between atoms: _342  and  _345
REMARK  146  A    between atoms: _345  and  _346
REMARK  147  A    between atoms: _349  and  _351
REMARK  148  A    between atoms: _351  and  _352
REMARK  149  A    between atoms: _351  and  _354
REMARK  150  A    between atoms: _354  and  _355
REMARK  151  A    between atoms: _360  and  _362
REMARK  152  A    between atoms: _362  and  _363
REMARK  153  A    between atoms: _362  and  _365
REMARK  154  A    between atoms: _365  and  _366
REMARK  155  A    between atoms: _369  and  _371
REMARK  156  A    between atoms: _371  and  _372
REMARK  157  A    between atoms: _371  and  _374
REMARK  158  A    between atoms: _374  and  _375
REMARK  159  A    between atoms: _375  and  _376
REMARK  160  A    between atoms: _378  and  _380
REMARK  161  A    between atoms: _380  and  _381
REMARK  162  A    between atoms: _383  and  _385
REMARK  163  A    between atoms: _385  and  _386
REMARK  164  A    between atoms: _389  and  _391
REMARK  165  A    between atoms: _391  and  _392
REMARK  166  A    between atoms: _391  and  _394
REMARK  167  A    between atoms: _394  and  _395
REMARK  168  A    between atoms: _398  and  _400
REMARK  169  A    between atoms: _400  and  _401
REMARK  170  A    between atoms: _400  and  _403
REMARK  171  A    between atoms: _403  and  _404
REMARK  172  A    between atoms: _407  and  _409
REMARK  173  A    between atoms: _409  and  _410
REMARK  174  A    between atoms: _409  and  _412
REMARK  175  A    between atoms: _412  and  _413
REMARK  176  A    between atoms: _418  and  _420
REMARK  177  A    between atoms: _420  and  _421
REMARK  178  A    between atoms: _420  and  _423
REMARK  179  A    between atoms: _423  and  _424
REMARK  180  A    between atoms: _429  and  _431
REMARK  181  A    between atoms: _431  and  _432
REMARK  182  A    between atoms: _431  and  _434
REMARK  183  A    between atoms: _434  and  _435
REMARK  184  A    between atoms: _438  and  _440
REMARK  185  A    between atoms: _440  and  _441
REMARK  186  A    between atoms: _440  and  _443
REMARK  187  A    between atoms: _443  and  _444
REMARK  188  A    between atoms: _450  and  _451
REMARK  189  A    between atoms: _456  and  _458
REMARK  190  A    between atoms: _458  and  _459
REMARK  191  A    between atoms: _458  and  _461
REMARK  192  A    between atoms: _461  and  _462
REMARK  193  A    between atoms: _464  and  _466
REMARK  194  A    between atoms: _466  and  _467
REMARK  195  A    between atoms: _466  and  _469
REMARK  196  A    between atoms: _469  and  _470
REMARK  197  A    between atoms: _475  and  _477
REMARK  198  A    between atoms: _477  and  _478
REMARK  199  A    between atoms: _477  and  _480
REMARK  200  A    between atoms: _480  and  _481
REMARK  201  A    between atoms: _484  and  _486
REMARK  202  A    between atoms: _486  and  _487
REMARK  203  A    between atoms: _490  and  _492
REMARK  204  A    between atoms: _492  and  _493
REMARK  205  A    between atoms: _492  and  _495
REMARK  206  A    between atoms: _498  and  _500
REMARK  207  A    between atoms: _500  and  _501
REMARK  208  A    between atoms: _500  and  _503
REMARK  209  A    between atoms: _503  and  _504
REMARK  210  A    between atoms: _504  and  _505
REMARK  211  A    between atoms: _505  and  _506
REMARK  212  A    between atoms: _506  and  _507
REMARK  213  A    between atoms: _511  and  _513
REMARK  214  A    between atoms: _513  and  _514
REMARK  215  A    between atoms: _513  and  _516
REMARK  216  A    between atoms: _516  and  _517
REMARK  217  A    between atoms: _520  and  _522
REMARK  218  A    between atoms: _522  and  _523
REMARK  219  A    between atoms: _522  and  _525
REMARK  220  A    between atoms: _525  and  _526
REMARK  221  A    between atoms: _529  and  _531
REMARK  222  A    between atoms: _531  and  _532
REMARK  223  A    between atoms: _531  and  _534
REMARK  224  A    between atoms: _534  and  _535
REMARK  225  A    between atoms: _538  and  _540
REMARK  226  A    between atoms: _540  and  _541
REMARK  227  A    between atoms: _540  and  _543
REMARK  228  A    between atoms: _543  and  _544
REMARK  229  A    between atoms: _550  and  _552
REMARK  230  A    between atoms: _552  and  _553
REMARK  231  A    between atoms: _555  and  _557
REMARK  232  A    between atoms: _557  and  _558
REMARK  233  A    between atoms: _557  and  _560
REMARK  234  A    between atoms: _560  and  _561
REMARK                            x       y       z     vdW  Elec       q    Type
REMARK                         _______ _______ _______ _____ _____    ______ ____
ROOT
ATOM      1  C   ASN A   3      47.679  29.412  38.826  0.00  0.00    +0.241 C 
ATOM      2  O   ASN A   3      46.591  29.515  39.419  0.00  0.00    -0.273 OA
ATOM      3  N   LEU A   4      48.731  30.188  39.047  0.00  0.00    -0.297 N 
ATOM      4  H   LEU A   4      49.642  29.924  38.621  0.00  0.00    +0.150 HD
ENDROOT
BRANCH   3   5
ATOM      5  CA  LEU A   4      48.665  31.398  39.864  0.00  0.00    +0.149 C 
BRANCH   5   6
ATOM      6  C   LEU A   4      49.000  32.570  38.935  0.00  0.00    +0.241 C 
ATOM      7  N   ALA A   5      47.985  33.343  38.552  0.00  0.00    -0.297 N 
ATOM      8  H   ALA A   5      47.025  33.110  38.876  0.00  0.00    +0.150 HD
ATOM      9  O   LEU A   4      50.154  32.731  38.528  0.00  0.00    -0.273 OA
BRANCH   7  10
ATOM     10  CA  ALA A   5      48.178  34.507  37.691  0.00  0.00    +0.149 C 
ATOM     11  CB  ALA A   5      46.979  34.703  36.836  0.00  0.00    +0.031 C 
BRANCH  10  12
ATOM     12  C   ALA A   5      48.476  35.757  38.535  0.00  0.00    +0.241 C 
ATOM     13  O   ALA A   5      47.920  35.927  39.625  0.00  0.00    -0.273 OA
ATOM     14  N   VAL A   6      49.365  36.621  38.040  0.00  0.00    -0.298 N 
ATOM     15  H   VAL A   6      49.711  36.487  37.069  0.00  0.00    +0.150 HD
BRANCH  14  16
ATOM     16  CA  VAL A   6      49.867  37.751  38.823  0.00  0.00    +0.137 C 
BRANCH  16  17
ATOM     17  CB  VAL A   6      51.245  37.384  39.458  0.00  0.00    +0.026 C 
ATOM     18  CG2 VAL A   6      51.741  38.474  40.379  0.00  0.00    +0.002 C 
ATOM     19  CG1 VAL A   6      51.111  36.104  40.288  0.00  0.00    +0.002 C 
ENDBRANCH  16  17
BRANCH  16  20
ATOM     20  C   VAL A   6      49.982  38.984  37.959  0.00  0.00    +0.227 C 
ATOM     21  O   VAL A   6      50.445  38.890  36.831  0.00  0.00    -0.286 OA
ENDBRANCH  16  20
ENDBRANCH  14  16
ENDBRANCH  10  12
ENDBRANCH   7  10
ENDBRANCH   5   6
BRANCH   5  22
ATOM     22  CB  LEU A   4      49.648  31.309  41.040  0.00  0.00    +0.029 C 
BRANCH  22  23
ATOM     23  CG  LEU A   4      49.138  30.159  41.927  0.00  0.00    +0.002 C 
ATOM     24  CD2 LEU A   4      50.209  29.621  42.870  0.00  0.00    +0.000 C 
ATOM     25  CD1 LEU A   4      47.896  30.614  42.710  0.00  0.00    +0.000 C 
ENDBRANCH  22  23
ENDBRANCH   5  22
ENDBRANCH   3   5
BRANCH   1  26
ATOM     26  CA  ASN A   3      47.930  28.346  37.797  0.00  0.00    +0.158 C 
BRANCH  26  28
ATOM     27  C   SER A   2      49.985  28.149  36.647  0.00  0.00    +0.243 C 
ATOM     28  N   ASN A   3      49.312  27.904  37.756  0.00  0.00    -0.297 N 
ATOM     29  H   ASN A   3      49.752  27.417  38.563  0.00  0.00    +0.150 HD
ATOM     30  O   SER A   2      49.423  28.576  35.645  0.00  0.00    -0.273 OA
BRANCH  27  31
ATOM     31  CA  SER A   2      51.490  27.852  36.606  0.00  0.00    +0.178 C 
BRANCH  31  34
ATOM     32  C   PRO A   1      52.226  28.514  38.757  0.00  0.00    +0.239 C 
ATOM     33  O   PRO A   1      51.870  29.665  38.501  0.00  0.00    -0.274 OA
ATOM     34  N   SER A   2      52.092  27.544  37.882  0.00  0.00    -0.295 N 
ATOM     35  H   SER A   2      52.411  26.579  38.102  0.00  0.00    +0.150 HD
BRANCH  32  40
ATOM     36  N   PRO A   1      52.560  26.794  40.563  0.00  0.00    -0.210 NA
ATOM     37  CD  PRO A   1      53.810  26.071  40.838  0.00  0.00    +0.089 C 
ATOM     38  CG  PRO A   1      54.780  27.200  41.044  0.00  0.00    +0.021 C 
ATOM     39  CB  PRO A   1      54.362  28.206  40.021  0.00  0.00    +0.028 C 
ATOM     40  CA  PRO A   1      52.839  28.174  40.113  0.00  0.00    +0.149 C 
ENDBRANCH  32  40
ENDBRANCH  31  34
BRANCH  31  41
ATOM     41  CB  SER A   2      51.778  26.767  35.561  0.00  0.00    +0.166 C 
BRANCH  41  42
ATOM     42  OG  SER A   2      51.070  25.589  35.888  0.00  0.00    -0.380 OA
ATOM     43  H   SER A   2      50.099  25.782  35.902  0.00  0.00    +0.211 HD
ENDBRANCH  41  42
ENDBRANCH  31  41
ENDBRANCH  27  31
ENDBRANCH  26  28
BRANCH  26  44
ATOM     44  CB  ASN A   3      46.899  27.206  37.788  0.00  0.00    +0.114 C 
BRANCH  44  45
ATOM     45  CG  ASN A   3      47.181  26.173  38.792  0.00  0.00    +0.222 C 
ATOM     46  OD1 ASN A   3      47.609  26.488  39.885  0.00  0.00    -0.275 OA
ATOM     47  ND2 ASN A   3      46.912  24.914  38.448  0.00  0.00    -0.329 N 
ATOM     48 HD21 ASN A   3      47.067  24.144  39.130  0.00  0.00    +0.145 HD
ATOM     49 HD22 ASN A   3      46.547  24.701  37.498  0.00  0.00    +0.145 HD
ENDBRANCH  44  45
ENDBRANCH  26  44
ENDBRANCH   1  26
TORSDOF 18
REMARK  Name = ../refined-set-2016/3iph/3iph_pocket.pdb
REMARK  234 active torsions:
REMARK  status: ('A' for Active; 'I' for Inactive)
REMARK    1  A    between atoms: _1  and  _3
REMARK    2  A    between atoms: _3  and  _4
REMARK    3  A    between atoms: _3  and  _6
REMARK    4  A    between atoms: _9  and  _11
REMARK    5  A    between atoms: _11  and  _12
REMARK    6  A    between atoms: _14  and  _16
REMARK    7  A    between atoms: _16  and  _17
REMARK    8  A    between atoms: _16  and  _19
REMARK    9  A    between atoms: _19  and  _20
REMARK   10  A    between atoms: _22  and  _24
REMARK   11  A    between atoms: _24  and  _25
REMARK   12  A    between atoms: _27  and  _29
REMARK   13  A    between atoms: _29  and  _30
REMARK   14  A    between atoms: _33  and  _35
REMARK   15  A    between atoms: _35  and  _36
REMARK   16  A    between atoms: _35  and  _38
REMARK   17  A    between atoms: _38  and  _39
REMARK   18  A    between atoms: _44  and  _45
REMARK   19  A    between atoms: _47  and  _49
REMARK   20  A    between atoms: _49  and  _50
REMARK   21  A    between atoms: _49  and  _52
REMARK   22  A    between atoms: _52  and  _53
REMARK   23  A    between atoms: _55  and  _57
REMARK   24  A    between atoms: _57  and  _58
REMARK   25  A    between atoms: _57  and  _60
REMARK   26  A    between atoms: _63  and  _65
REMARK   27  A    between atoms: _65  and  _66
REMARK   28  A    between atoms: _65  and  _68
REMARK   29  A    between atoms: _70  and  _72
REMARK   30  A    between atoms: _72  and  _73
REMARK   31  A    between atoms: _76  and  _78
REMARK   32  A    between atoms: _78  and  _79
REMARK   33  A    between atoms: _78  and  _81
REMARK   34  A    between atoms: _81  and  _82
REMARK   35  A    between atoms: _82  and  _83
REMARK   36  A    between atoms: _83  and  _84
REMARK   37  A    between atoms: _93  and  _95
REMARK   38  A    between atoms: _95  and  _96
REMARK   39  A    between atoms: _95  and  _98
REMARK   40  A    between atoms: _101  and  _103
REMARK   41  A    between atoms: _103  and  _104
REMARK   42  A    between atoms: _107  and  _109
REMARK   43  A    between atoms: _109  and  _110
REMARK   44  A    between atoms: _109  and  _112
REMARK   45  A    between atoms: _115  and  _117
REMARK   46  A    between atoms: _117  and  _118
REMARK   47  A    between atoms: _117  and  _120
REMARK   48  A    between atoms: _120  and  _121
REMARK   49  A    between atoms: _121  and  _122
REMARK   50  A    between atoms: _122  and  _123
REMARK   51  A    between atoms: _123  and  _124
REMARK   52  A    between atoms: _128  and  _130
REMARK   53  A    between atoms: _130  and  _131
REMARK   54  A    between atoms: _130  and  _133
REMARK   55  A    between atoms: _133  and  _134
REMARK   56  A    between atoms: _134  and  _135
REMARK   57  A    between atoms: _135  and  _136
REMARK   58  A    between atoms: _136  and  _137
REMARK   59  A    between atoms: _141  and  _143
REMARK   60  A    between atoms: _143  and  _144
REMARK   61  A    between atoms: _143  and  _146
REMARK   62  A    between atoms: _146  and  _147
REMARK   63  A    between atoms: _150  and  _152
REMARK   64  A    between atoms: _152  and  _153
REMARK   65  A    between atoms: _152  and  _155
REMARK   66  A    between atoms: _155  and  _156
REMARK   67  A    between atoms: _156  and  _157
REMARK   68  A    between atoms: _157  and  _158
REMARK   69  A    between atoms: _167  and  _169
REMARK   70  A    between atoms: _169  and  _170
REMARK   71  A    between atoms: _169  and  _172
REMARK   72  A    between atoms: _172  and  _173
REMARK   73  A    between atoms: _173  and  _174
REMARK   74  A    between atoms: _174  and  _175
REMARK   75  A    between atoms: _184  and  _186
REMARK   76  A    between atoms: _186  and  _187
REMARK   77  A    between atoms: _186  and  _189
REMARK   78  A    between atoms: _189  and  _190
REMARK   79  A    between atoms: _190  and  _191
REMARK   80  A    between atoms: _194  and  _196
REMARK   81  A    between atoms: _196  and  _197
REMARK   82  A    between atoms: _196  and  _199
REMARK   83  A    between atoms: _199  and  _200
REMARK   84  A    between atoms: _203  and  _205
REMARK   85  A    between atoms: _205  and  _206
REMARK   86  A    between atoms: _205  and  _208
REMARK   87  A    between atoms: _208  and  _209
REMARK   88  A    between atoms: _209  and  _210
REMARK   89  A    between atoms: _210  and  _211
REMARK   90  A    between atoms: _220  and  _222
REMARK   91  A    between atoms: _222  and  _223
REMARK   92  A    between atoms: _222  and  _225
REMARK   93  A    between atoms: _225  and  _226
REMARK   94  A    between atoms: _229  and  _231
REMARK   95  A    between atoms: _231  and  _232
REMARK   96  A    between atoms: _231  and  _234
REMARK   97  A    between atoms: _234  and  _235
REMARK   98  A    between atoms: _238  and  _240
REMARK   99  A    between atoms: _240  and  _241
REMARK  100  A    between atoms: _240  and  _243
REMARK  101  A    between atoms: _243  and  _244
REMARK  102  A    between atoms: _244  and  _245
REMARK  103  A    between atoms: _245  and  _246
REMARK  104  A    between atoms: _246  and  _247
REMARK  105  A    between atoms: _251  and  _253
REMARK  106  A    between atoms: _253  and  _254
REMARK  107  A    between atoms: _253  and  _256
REMARK  108  A    between atoms: _256  and  _257
REMARK  109  A    between atoms: _257  and  _258
REMARK  110  A    between atoms: _260  and  _262
REMARK  111  A    between atoms: _262  and  _263
REMARK  112  A    between atoms: _262  and  _265
REMARK  113  A    between atoms: _268  and  _270
REMARK  114  A    between atoms: _270  and  _271
REMARK  115  A    between atoms: _270  and  _273
REMARK  116  A    between atoms: _273  and  _274
REMARK  117  A    between atoms: _277  and  _279
REMARK  118  A    between atoms: _279  and  _280
REMARK  119  A    between atoms: _282  and  _284
REMARK  120  A    between atoms: _284  and  _285
REMARK  121  A    between atoms: _284  and  _287
REMARK  122  A    between atoms: _287  and  _288
REMARK  123  A    between atoms: _291  and  _293
REMARK  124  A    between atoms: _293  and  _294
REMARK  125  A    between atoms: _293  and  _296
REMARK  126  A    between atoms: _296  and  _297
REMARK  127  A    between atoms: _300  and  _302
REMARK  128  A    between atoms: _302  and  _303
REMARK  129  A    between atoms: _302  and  _305
REMARK  130  A    between atoms: _305  and  _306
REMARK  131  A    between atoms: _309  and  _311
REMARK  132  A    between atoms: _311  and  _312
REMARK  133  A    between atoms: _311  and  _314
REMARK  134  A    between atoms: _314  and  _315
REMARK  135  A    between atoms: _320  and  _321
REMARK  136  A    between atoms: _323  and  _325
REMARK  137  A    between atoms: _325  and  _326
REMARK  138  A    between atoms: _325  and  _328
REMARK  139  A    between atoms: _328  and  _329
REMARK  140  A    between atoms: _332  and  _334
REMARK  141  A    between atoms: _334  and  _335
REMARK  142  A    between atoms: _334  and  _337
REMARK  143  A    between atoms: _340  and  _342
REMARK  144  A    between atoms: _342  and  _343
REMARK  145  A    between atoms: _342  and  _345
REMARK  146  A    between atoms: _345  and  _346
REMARK  147  A    between atoms: _349  and  _351
REMARK  148  A    between atoms: _351  and  _352
REMARK  149  A    between atoms: _351  and  _354
REMARK  150  A    between atoms: _354  and  _355
REMARK  151  A    between atoms: _360  and  _362
REMARK  152  A    between atoms: _362  and  _363
REMARK  153  A    between atoms: _362  and  _365
REMARK  154  A    between atoms: _365  and  _366
REMARK  155  A    between atoms: _369  and  _371
REMARK  156  A    between atoms: _371  and  _372
REMARK  157  A    between atoms: _371  and  _374
REMARK  158  A    between atoms: _374  and  _375
REMARK  159  A    between atoms: _375  and  _376
REMARK  160  A    between atoms: _378  and  _380
REMARK  161  A    between atoms: _380  and  _381
REMARK  162  A    between atoms: _383  and  _385
REMARK  163  A    between atoms: _385  and  _386
REMARK  164  A    between atoms: _389  and  _391
REMARK  165  A    between atoms: _391  and  _392
REMARK  166  A    between atoms: _391  and  _394
REMARK  167  A    between atoms: _394  and  _395
REMARK  168  A    between atoms: _398  and  _400
REMARK  169  A    between atoms: _400  and  _401
REMARK  170  A    between atoms: _400  and  _403
REMARK  171  A    between atoms: _403  and  _404
REMARK  172  A    between atoms: _407  and  _409
REMARK  173  A    between atoms: _409  and  _410
REMARK  174  A    between atoms: _409  and  _412
REMARK  175  A    between atoms: _412  and  _413
REMARK  176  A    between atoms: _418  and  _420
REMARK  177  A    between atoms: _420  and  _421
REMARK  178  A    between atoms: _420  and  _423
REMARK  179  A    between atoms: _423  and  _424
REMARK  180  A    between atoms: _429  and  _431
REMARK  181  A    between atoms: _431  and  _432
REMARK  182  A    between atoms: _431  and  _434
REMARK  183  A    between atoms: _434  and  _435
REMARK  184  A    between atoms: _438  and  _440
REMARK  185  A    between atoms: _440  and  _441
REMARK  186  A    between atoms: _440  and  _443
REMARK  187  A    between atoms: _443  and  _444
REMARK  188  A    between atoms: _450  and  _451
REMARK  189  A    between atoms: _456  and  _458
REMARK  190  A    between atoms: _458  and  _459
REMARK  191  A    between atoms: _458  and  _461
REMARK  192  A    between atoms: _461  and  _462
REMARK  193  A    between atoms: _464  and  _466
REMARK  194  A    between atoms: _466  and  _467
REMARK  195  A    between atoms: _466  and  _469
REMARK  196  A    between atoms: _469  and  _470
REMARK  197  A    between atoms: _475  and  _477
REMARK  198  A    between atoms: _477  and  _478
REMARK  199  A    between atoms: _477  and  _480
REMARK  200  A    between atoms: _480  and  _481
REMARK  201  A    between atoms: _484  and  _486
REMARK  202  A    between atoms: _486  and  _487
REMARK  203  A    between atoms: _490  and  _492
REMARK  204  A    between atoms: _492  and  _493
REMARK  205  A    between atoms: _492  and  _495
REMARK  206  A    between atoms: _498  and  _500
REMARK  207  A    between atoms: _500  and  _501
REMARK  208  A    between atoms: _500  and  _503
REMARK  209  A    between atoms: _503  and  _504
REMARK  210  A    between atoms: _504  and  _505
REMARK  211  A    between atoms: _505  and  _506
REMARK  212  A    between atoms: _506  and  _507
REMARK  213  A    between atoms: _511  and  _513
REMARK  214  A    between atoms: _513  and  _514
REMARK  215  A    between atoms: _513  and  _516
REMARK  216  A    between atoms: _516  and  _517
REMARK  217  A    between atoms: _520  and  _522
REMARK  218  A    between atoms: _522  and  _523
REMARK  219  A    between atoms: _522  and  _525
REMARK  220  A    between atoms: _525  and  _526
REMARK  221  A    between atoms: _529  and  _531
REMARK  222  A    between atoms: _531  and  _532
REMARK  223  A    between atoms: _531  and  _534
REMARK  224  A    between atoms: _534  and  _535
REMARK  225  A    between atoms: _538  and  _540
REMARK  226  A    between atoms: _540  and  _541
REMARK  227  A    between atoms: _540  and  _543
REMARK  228  A    between atoms: _543  and  _544
REMARK  229  A    between atoms: _550  and  _552
REMARK  230  A    between atoms: _552  and  _553
REMARK  231  A    between atoms: _555  and  _557
REMARK  232  A    between atoms: _557  and  _558
REMARK  233  A    between atoms: _557  and  _560
REMARK  234  A    between atoms: _560  and  _561
REMARK                            x       y       z     vdW  Elec       q    Type
REMARK                         _______ _______ _______ _____ _____    ______ ____
ROOT
ATOM      1  C   LEU A   3      42.903  28.056  38.542  0.00  0.00    +0.241 C 
ATOM      2  O   LEU A   3      43.729  27.419  39.234  0.00  0.00    -0.273 OA
ATOM      3  N   ASP A   4      41.973  27.487  37.788  0.00  0.00    -0.297 N 
ATOM      4  H   ASP A   4      41.261  28.093  37.333  0.00  0.00    +0.150 HD
ENDROOT
BRANCH   3   5
ATOM      5  CA  ASP A   4      41.906  26.038  37.568  0.00  0.00    +0.160 C 
BRANCH   5   6
ATOM      6  C   ASP A   4      41.561  25.135  38.746  0.00  0.00    +0.241 C 
ATOM      7  N   PHE A   5      40.989  25.712  39.790  0.00  0.00    -0.297 N 
ATOM      8  H   PHE A   5      40.873  26.745  39.802  0.00  0.00    +0.150 HD
ATOM      9  O   ASP A   4      41.786  23.916  38.685  0.00  0.00    -0.273 OA
BRANCH   7  10
ATOM     10  CA  PHE A   5      40.515  24.921  40.933  0.00  0.00    +0.153 C 
BRANCH  10  11
ATOM     11  C   PHE A   5      39.254  24.110  40.571  0.00  0.00    +0.241 C 
ATOM     12  N   GLY A   6      38.987  23.077  41.372  0.00  0.00    -0.295 N 
ATOM     13  H   GLY A   6      39.699  22.817  42.084  0.00  0.00    +0.150 HD
ATOM     14  O   PHE A   5      38.546  24.432  39.602  0.00  0.00    -0.273 OA
BRANCH  12  15
ATOM     15  CA  GLY A   6      37.765  22.291  41.314  0.00  0.00    +0.176 C 
BRANCH  15  16
ATOM     16  C   GLY A   6      37.509  21.467  40.075  0.00  0.00    +0.243 C 
ATOM     17  O   GLY A   6      36.386  21.026  39.851  0.00  0.00    -0.273 OA
ATOM     18  N   LEU A   7      38.533  21.255  39.261  0.00  0.00    -0.298 N 
ATOM     19  H   LEU A   7      39.469  21.649  39.483  0.00  0.00    +0.150 HD
BRANCH  18  20
ATOM     20  CA  LEU A   7      38.337  20.468  38.058  0.00  0.00    +0.137 C 
BRANCH  20  21
ATOM     21  C   LEU A   7      39.070  19.132  38.182  0.00  0.00    +0.227 C 
ATOM     22  O   LEU A   7      38.632  18.149  37.584  0.00  0.00    -0.286 OA
ENDBRANCH  20  21
BRANCH  20  23
ATOM     23  CB  LEU A   7      38.791  21.219  36.794  0.00  0.00    +0.028 C 
BRANCH  23  24
ATOM     24  CG  LEU A   7      38.193  22.573  36.386  0.00  0.00    +0.002 C 
ATOM     25  CD2 LEU A   7      36.688  22.539  36.119  0.00  0.00    +0.000 C 
ATOM     26  CD1 LEU A   7      38.898  23.072  35.148  0.00  0.00    +0.000 C 
ENDBRANCH  23  24
ENDBRANCH  20  23
ENDBRANCH  18  20
ENDBRANCH  15  16
ENDBRANCH  12  15
ENDBRANCH  10  11
BRANCH  10  27
ATOM     27  CB  PHE A   5      40.164  25.864  42.083  0.00  0.00    +0.055 C 
BRANCH  27  28
ATOM     28  CG  PHE A   5      39.402  27.078  41.625  0.00  0.00    -0.020 A 
ATOM     29  CD2 PHE A   5      38.057  27.021  41.446  0.00  0.00    -0.004 A 
ATOM     30  CE2 PHE A   5      37.344  28.117  40.981  0.00  0.00    -0.000 A 
ATOM     31  CZ  PHE A   5      38.005  29.294  40.688  0.00  0.00    -0.000 A 
ATOM     32  CE1 PHE A   5      39.377  29.362  40.868  0.00  0.00    -0.000 A 
ATOM     33  CD1 PHE A   5      40.069  28.255  41.323  0.00  0.00    -0.004 A 
ENDBRANCH  27  28
ENDBRANCH  10  27
ENDBRANCH   7  10
ENDBRANCH   5   6
BRANCH   5  34
ATOM     34  CB  ASP A   4      43.174  25.541  36.863  0.00  0.00    +0.143 C 
BRANCH  34  35
ATOM     35  CG  ASP A   4      43.175  25.872  35.402  0.00  0.00    +0.367 C 
ATOM     36  OD2 ASP A   4      42.246  26.570  34.926  0.00  0.00    -0.246 OA
ATOM     37  OD1 ASP A   4      44.084  25.420  34.706  0.00  0.00    -0.246 OA
ENDBRANCH  34  35
ENDBRANCH   5  34
ENDBRANCH   3   5
BRANCH   1  38
ATOM     38  CA  LEU A   3      42.943  29.562  38.450  0.00  0.00    +0.149 C 
BRANCH  38  41
ATOM     39  C   ILE A   2      43.116  30.959  40.445  0.00  0.00    +0.241 C 
ATOM     40  O   ILE A   2      41.973  31.389  40.333  0.00  0.00    -0.273 OA
ATOM     41  N   LEU A   3      43.672  30.128  39.564  0.00  0.00    -0.297 N 
ATOM     42  H   LEU A   3      44.674  29.875  39.682  0.00  0.00    +0.150 HD
BRANCH  39  43
ATOM     43  CA  ILE A   2      43.996  31.402  41.583  0.00  0.00    +0.148 C 
BRANCH  43  45
ATOM     44  C   LYS A   1      44.759  33.727  41.099  0.00  0.00    +0.238 C 
ATOM     45  N   ILE A   2      43.959  32.873  41.739  0.00  0.00    -0.297 N 
ATOM     46  H   ILE A   2      43.258  33.270  42.396  0.00  0.00    +0.150 HD
ATOM     47  O   LYS A   1      45.687  33.379  40.383  0.00  0.00    -0.274 OA
BRANCH  44  48
ATOM     48  CA  LYS A   1      44.465  35.212  41.293  0.00  0.00    +0.145 C 
BRANCH  48  49
ATOM     49  N   LYS A   1      45.718  35.952  41.381  0.00  0.00    -0.238 NA
ATOM     50  H   LYS A   1      46.447  35.796  40.656  0.00  0.00    +0.142 HD
ENDBRANCH  48  49
BRANCH  48  51
ATOM     51  CB  LYS A   1      43.620  35.717  40.124  0.00  0.00    +0.026 C 
BRANCH  51  52
ATOM     52  CG  LYS A   1      43.118  37.147  40.304  0.00  0.00    -0.000 C 
BRANCH  52  53
ATOM     53  CD  LYS A   1      42.206  37.562  39.161  0.00  0.00    -0.024 C 
BRANCH  53  54
ATOM     54  CE  LYS A   1      41.940  39.069  39.164  0.00  0.00    -0.086 C 
BRANCH  54  55
ATOM     55  NZ  LYS A   1      41.457  39.481  40.493  0.00  0.00    +0.380 N 
ATOM     56  HZ1 LYS A   1      42.178  39.255  41.208  0.00  0.00    -0.089 HD
ATOM     57  HZ2 LYS A   1      40.577  38.973  40.713  0.00  0.00    -0.089 HD
ATOM     58  HZ3 LYS A   1      41.277  40.505  40.493  0.00  0.00    -0.089 HD
ENDBRANCH  54  55
ENDBRANCH  53  54
ENDBRANCH  52  53
ENDBRANCH  51  52
ENDBRANCH  48  51
ENDBRANCH  44  48
ENDBRANCH  43  45
BRANCH  43  59
ATOM     59  CB  ILE A   2      43.514  30.687  42.866  0.00  0.00    +0.027 C 
ATOM     60  CG2 ILE A   2      43.659  29.122  42.782  0.00  0.00    +0.002 C 
BRANCH  59  61
ATOM     61  CG1 ILE A   2      44.296  31.210  44.058  0.00  0.00    +0.002 C 
ATOM     62  CD1 ILE A   2      43.883  30.555  45.393  0.00  0.00    +0.000 C 
ENDBRANCH  59  61
ENDBRANCH  43  59
ENDBRANCH  39  43
ENDBRANCH  38  41
BRANCH  38  63
ATOM     63  CB  LEU A   3      43.677  29.823  37.141  0.00  0.00    +0.029 C 
BRANCH  63  64
ATOM     64  CG  LEU A   3      44.418  31.126  36.839  0.00  0.00    +0.002 C 
ATOM     65  CD2 LEU A   3      43.467  32.268  36.724  0.00  0.00    +0.000 C 
ATOM     66  CD1 LEU A   3      45.151  30.925  35.515  0.00  0.00    +0.000 C 
ENDBRANCH  63  64
ENDBRANCH  38  63
ENDBRANCH   1  38
TORSDOF 29
REMARK  Name = ../refined-set-2016/3iph/3iph_pocket.pdb
REMARK  234 active torsions:
REMARK  status: ('A' for Active; 'I' for Inactive)
REMARK    1  A    between atoms: _1  and  _3
REMARK    2  A    between atoms: _3  and  _4
REMARK    3  A    between atoms: _3  and  _6
REMARK    4  A    between atoms: _9  and  _11
REMARK    5  A    between atoms: _11  and  _12
REMARK    6  A    between atoms: _14  and  _16
REMARK    7  A    between atoms: _16  and  _17
REMARK    8  A    between atoms: _16  and  _19
REMARK    9  A    between atoms: _19  and  _20
REMARK   10  A    between atoms: _22  and  _24
REMARK   11  A    between atoms: _24  and  _25
REMARK   12  A    between atoms: _27  and  _29
REMARK   13  A    between atoms: _29  and  _30
REMARK   14  A    between atoms: _33  and  _35
REMARK   15  A    between atoms: _35  and  _36
REMARK   16  A    between atoms: _35  and  _38
REMARK   17  A    between atoms: _38  and  _39
REMARK   18  A    between atoms: _44  and  _45
REMARK   19  A    between atoms: _47  and  _49
REMARK   20  A    between atoms: _49  and  _50
REMARK   21  A    between atoms: _49  and  _52
REMARK   22  A    between atoms: _52  and  _53
REMARK   23  A    between atoms: _55  and  _57
REMARK   24  A    between atoms: _57  and  _58
REMARK   25  A    between atoms: _57  and  _60
REMARK   26  A    between atoms: _63  and  _65
REMARK   27  A    between atoms: _65  and  _66
REMARK   28  A    between atoms: _65  and  _68
REMARK   29  A    between atoms: _70  and  _72
REMARK   30  A    between atoms: _72  and  _73
REMARK   31  A    between atoms: _76  and  _78
REMARK   32  A    between atoms: _78  and  _79
REMARK   33  A    between atoms: _78  and  _81
REMARK   34  A    between atoms: _81  and  _82
REMARK   35  A    between atoms: _82  and  _83
REMARK   36  A    between atoms: _83  and  _84
REMARK   37  A    between atoms: _93  and  _95
REMARK   38  A    between atoms: _95  and  _96
REMARK   39  A    between atoms: _95  and  _98
REMARK   40  A    between atoms: _101  and  _103
REMARK   41  A    between atoms: _103  and  _104
REMARK   42  A    between atoms: _107  and  _109
REMARK   43  A    between atoms: _109  and  _110
REMARK   44  A    between atoms: _109  and  _112
REMARK   45  A    between atoms: _115  and  _117
REMARK   46  A    between atoms: _117  and  _118
REMARK   47  A    between atoms: _117  and  _120
REMARK   48  A    between atoms: _120  and  _121
REMARK   49  A    between atoms: _121  and  _122
REMARK   50  A    between atoms: _122  and  _123
REMARK   51  A    between atoms: _123  and  _124
REMARK   52  A    between atoms: _128  and  _130
REMARK   53  A    between atoms: _130  and  _131
REMARK   54  A    between atoms: _130  and  _133
REMARK   55  A    between atoms: _133  and  _134
REMARK   56  A    between atoms: _134  and  _135
REMARK   57  A    between atoms: _135  and  _136
REMARK   58  A    between atoms: _136  and  _137
REMARK   59  A    between atoms: _141  and  _143
REMARK   60  A    between atoms: _143  and  _144
REMARK   61  A    between atoms: _143  and  _146
REMARK   62  A    between atoms: _146  and  _147
REMARK   63  A    between atoms: _150  and  _152
REMARK   64  A    between atoms: _152  and  _153
REMARK   65  A    between atoms: _152  and  _155
REMARK   66  A    between atoms: _155  and  _156
REMARK   67  A    between atoms: _156  and  _157
REMARK   68  A    between atoms: _157  and  _158
REMARK   69  A    between atoms: _167  and  _169
REMARK   70  A    between atoms: _169  and  _170
REMARK   71  A    between atoms: _169  and  _172
REMARK   72  A    between atoms: _172  and  _173
REMARK   73  A    between atoms: _173  and  _174
REMARK   74  A    between atoms: _174  and  _175
REMARK   75  A    between atoms: _184  and  _186
REMARK   76  A    between atoms: _186  and  _187
REMARK   77  A    between atoms: _186  and  _189
REMARK   78  A    between atoms: _189  and  _190
REMARK   79  A    between atoms: _190  and  _191
REMARK   80  A    between atoms: _194  and  _196
REMARK   81  A    between atoms: _196  and  _197
REMARK   82  A    between atoms: _196  and  _199
REMARK   83  A    between atoms: _199  and  _200
REMARK   84  A    between atoms: _203  and  _205
REMARK   85  A    between atoms: _205  and  _206
REMARK   86  A    between atoms: _205  and  _208
REMARK   87  A    between atoms: _208  and  _209
REMARK   88  A    between atoms: _209  and  _210
REMARK   89  A    between atoms: _210  and  _211
REMARK   90  A    between atoms: _220  and  _222
REMARK   91  A    between atoms: _222  and  _223
REMARK   92  A    between atoms: _222  and  _225
REMARK   93  A    between atoms: _225  and  _226
REMARK   94  A    between atoms: _229  and  _231
REMARK   95  A    between atoms: _231  and  _232
REMARK   96  A    between atoms: _231  and  _234
REMARK   97  A    between atoms: _234  and  _235
REMARK   98  A    between atoms: _238  and  _240
REMARK   99  A    between atoms: _240  and  _241
REMARK  100  A    between atoms: _240  and  _243
REMARK  101  A    between atoms: _243  and  _244
REMARK  102  A    between atoms: _244  and  _245
REMARK  103  A    between atoms: _245  and  _246
REMARK  104  A    between atoms: _246  and  _247
REMARK  105  A    between atoms: _251  and  _253
REMARK  106  A    between atoms: _253  and  _254
REMARK  107  A    between atoms: _253  and  _256
REMARK  108  A    between atoms: _256  and  _257
REMARK  109  A    between atoms: _257  and  _258
REMARK  110  A    between atoms: _260  and  _262
REMARK  111  A    between atoms: _262  and  _263
REMARK  112  A    between atoms: _262  and  _265
REMARK  113  A    between atoms: _268  and  _270
REMARK  114  A    between atoms: _270  and  _271
REMARK  115  A    between atoms: _270  and  _273
REMARK  116  A    between atoms: _273  and  _274
REMARK  117  A    between atoms: _277  and  _279
REMARK  118  A    between atoms: _279  and  _280
REMARK  119  A    between atoms: _282  and  _284
REMARK  120  A    between atoms: _284  and  _285
REMARK  121  A    between atoms: _284  and  _287
REMARK  122  A    between atoms: _287  and  _288
REMARK  123  A    between atoms: _291  and  _293
REMARK  124  A    between atoms: _293  and  _294
REMARK  125  A    between atoms: _293  and  _296
REMARK  126  A    between atoms: _296  and  _297
REMARK  127  A    between atoms: _300  and  _302
REMARK  128  A    between atoms: _302  and  _303
REMARK  129  A    between atoms: _302  and  _305
REMARK  130  A    between atoms: _305  and  _306
REMARK  131  A    between atoms: _309  and  _311
REMARK  132  A    between atoms: _311  and  _312
REMARK  133  A    between atoms: _311  and  _314
REMARK  134  A    between atoms: _314  and  _315
REMARK  135  A    between atoms: _320  and  _321
REMARK  136  A    between atoms: _323  and  _325
REMARK  137  A    between atoms: _325  and  _326
REMARK  138  A    between atoms: _325  and  _328
REMARK  139  A    between atoms: _328  and  _329
REMARK  140  A    between atoms: _332  and  _334
REMARK  141  A    between atoms: _334  and  _335
REMARK  142  A    between atoms: _334  and  _337
REMARK  143  A    between atoms: _340  and  _342
REMARK  144  A    between atoms: _342  and  _343
REMARK  145  A    between atoms: _342  and  _345
REMARK  146  A    between atoms: _345  and  _346
REMARK  147  A    between atoms: _349  and  _351
REMARK  148  A    between atoms: _351  and  _352
REMARK  149  A    between atoms: _351  and  _354
REMARK  150  A    between atoms: _354  and  _355
REMARK  151  A    between atoms: _360  and  _362
REMARK  152  A    between atoms: _362  and  _363
REMARK  153  A    between atoms: _362  and  _365
REMARK  154  A    between atoms: _365  and  _366
REMARK  155  A    between atoms: _369  and  _371
REMARK  156  A    between atoms: _371  and  _372
REMARK  157  A    between atoms: _371  and  _374
REMARK  158  A    between atoms: _374  and  _375
REMARK  159  A    between atoms: _375  and  _376
REMARK  160  A    between atoms: _378  and  _380
REMARK  161  A    between atoms: _380  and  _381
REMARK  162  A    between atoms: _383  and  _385
REMARK  163  A    between atoms: _385  and  _386
REMARK  164  A    between atoms: _389  and  _391
REMARK  165  A    between atoms: _391  and  _392
REMARK  166  A    between atoms: _391  and  _394
REMARK  167  A    between atoms: _394  and  _395
REMARK  168  A    between atoms: _398  and  _400
REMARK  169  A    between atoms: _400  and  _401
REMARK  170  A    between atoms: _400  and  _403
REMARK  171  A    between atoms: _403  and  _404
REMARK  172  A    between atoms: _407  and  _409
REMARK  173  A    between atoms: _409  and  _410
REMARK  174  A    between atoms: _409  and  _412
REMARK  175  A    between atoms: _412  and  _413
REMARK  176  A    between atoms: _418  and  _420
REMARK  177  A    between atoms: _420  and  _421
REMARK  178  A    between atoms: _420  and  _423
REMARK  179  A    between atoms: _423  and  _424
REMARK  180  A    between atoms: _429  and  _431
REMARK  181  A    between atoms: _431  and  _432
REMARK  182  A    between atoms: _431  and  _434
REMARK  183  A    between atoms: _434  and  _435
REMARK  184  A    between atoms: _438  and  _440
REMARK  185  A    between atoms: _440  and  _441
REMARK  186  A    between atoms: _440  and  _443
REMARK  187  A    between atoms: _443  and  _444
REMARK  188  A    between atoms: _450  and  _451
REMARK  189  A    between atoms: _456  and  _458
REMARK  190  A    between atoms: _458  and  _459
REMARK  191  A    between atoms: _458  and  _461
REMARK  192  A    between atoms: _461  and  _462
REMARK  193  A    between atoms: _464  and  _466
REMARK  194  A    between atoms: _466  and  _467
REMARK  195  A    between atoms: _466  and  _469
REMARK  196  A    between atoms: _469  and  _470
REMARK  197  A    between atoms: _475  and  _477
REMARK  198  A    between atoms: _477  and  _478
REMARK  199  A    between atoms: _477  and  _480
REMARK  200  A    between atoms: _480  and  _481
REMARK  201  A    between atoms: _484  and  _486
REMARK  202  A    between atoms: _486  and  _487
REMARK  203  A    between atoms: _490  and  _492
REMARK  204  A    between atoms: _492  and  _493
REMARK  205  A    between atoms: _492  and  _495
REMARK  206  A    between atoms: _498  and  _500
REMARK  207  A    between atoms: _500  and  _501
REMARK  208  A    between atoms: _500  and  _503
REMARK  209  A    between atoms: _503  and  _504
REMARK  210  A    between atoms: _504  and  _505
REMARK  211  A    between atoms: _505  and  _506
REMARK  212  A    between atoms: _506  and  _507
REMARK  213  A    between atoms: _511  and  _513
REMARK  214  A    between atoms: _513  and  _514
REMARK  215  A    between atoms: _513  and  _516
REMARK  216  A    between atoms: _516  and  _517
REMARK  217  A    between atoms: _520  and  _522
REMARK  218  A    between atoms: _522  and  _523
REMARK  219  A    between atoms: _522  and  _525
REMARK  220  A    between atoms: _525  and  _526
REMARK  221  A    between atoms: _529  and  _531
REMARK  222  A    between atoms: _531  and  _532
REMARK  223  A    between atoms: _531  and  _534
REMARK  224  A    between atoms: _534  and  _535
REMARK  225  A    between atoms: _538  and  _540
REMARK  226  A    between atoms: _540  and  _541
REMARK  227  A    between atoms: _540  and  _543
REMARK  228  A    between atoms: _543  and  _544
REMARK  229  A    between atoms: _550  and  _552
REMARK  230  A    between atoms: _552  and  _553
REMARK  231  A    between atoms: _555  and  _557
REMARK  232  A    between atoms: _557  and  _558
REMARK  233  A    between atoms: _557  and  _560
REMARK  234  A    between atoms: _560  and  _561
REMARK                            x       y       z     vdW  Elec       q    Type
REMARK                         _______ _______ _______ _____ _____    ______ ____
ROOT
ATOM      1  O   HOH     1      41.827  42.059  33.307  0.00  0.00    +0.000 OA
ENDROOT
TORSDOF 0
REMARK  Name = ../refined-set-2016/3iph/3iph_pocket.pdb
REMARK  234 active torsions:
REMARK  status: ('A' for Active; 'I' for Inactive)
REMARK    1  A    between atoms: _1  and  _3
REMARK    2  A    between atoms: _3  and  _4
REMARK    3  A    between atoms: _3  and  _6
REMARK    4  A    between atoms: _9  and  _11
REMARK    5  A    between atoms: _11  and  _12
REMARK    6  A    between atoms: _14  and  _16
REMARK    7  A    between atoms: _16  and  _17
REMARK    8  A    between atoms: _16  and  _19
REMARK    9  A    between atoms: _19  and  _20
REMARK   10  A    between atoms: _22  and  _24
REMARK   11  A    between atoms: _24  and  _25
REMARK   12  A    between atoms: _27  and  _29
REMARK   13  A    between atoms: _29  and  _30
REMARK   14  A    between atoms: _33  and  _35
REMARK   15  A    between atoms: _35  and  _36
REMARK   16  A    between atoms: _35  and  _38
REMARK   17  A    between atoms: _38  and  _39
REMARK   18  A    between atoms: _44  and  _45
REMARK   19  A    between atoms: _47  and  _49
REMARK   20  A    between atoms: _49  and  _50
REMARK   21  A    between atoms: _49  and  _52
REMARK   22  A    between atoms: _52  and  _53
REMARK   23  A    between atoms: _55  and  _57
REMARK   24  A    between atoms: _57  and  _58
REMARK   25  A    between atoms: _57  and  _60
REMARK   26  A    between atoms: _63  and  _65
REMARK   27  A    between atoms: _65  and  _66
REMARK   28  A    between atoms: _65  and  _68
REMARK   29  A    between atoms: _70  and  _72
REMARK   30  A    between atoms: _72  and  _73
REMARK   31  A    between atoms: _76  and  _78
REMARK   32  A    between atoms: _78  and  _79
REMARK   33  A    between atoms: _78  and  _81
REMARK   34  A    between atoms: _81  and  _82
REMARK   35  A    between atoms: _82  and  _83
REMARK   36  A    between atoms: _83  and  _84
REMARK   37  A    between atoms: _93  and  _95
REMARK   38  A    between atoms: _95  and  _96
REMARK   39  A    between atoms: _95  and  _98
REMARK   40  A    between atoms: _101  and  _103
REMARK   41  A    between atoms: _103  and  _104
REMARK   42  A    between atoms: _107  and  _109
REMARK   43  A    between atoms: _109  and  _110
REMARK   44  A    between atoms: _109  and  _112
REMARK   45  A    between atoms: _115  and  _117
REMARK   46  A    between atoms: _117  and  _118
REMARK   47  A    between atoms: _117  and  _120
REMARK   48  A    between atoms: _120  and  _121
REMARK   49  A    between atoms: _121  and  _122
REMARK   50  A    between atoms: _122  and  _123
REMARK   51  A    between atoms: _123  and  _124
REMARK   52  A    between atoms: _128  and  _130
REMARK   53  A    between atoms: _130  and  _131
REMARK   54  A    between atoms: _130  and  _133
REMARK   55  A    between atoms: _133  and  _134
REMARK   56  A    between atoms: _134  and  _135
REMARK   57  A    between atoms: _135  and  _136
REMARK   58  A    between atoms: _136  and  _137
REMARK   59  A    between atoms: _141  and  _143
REMARK   60  A    between atoms: _143  and  _144
REMARK   61  A    between atoms: _143  and  _146
REMARK   62  A    between atoms: _146  and  _147
REMARK   63  A    between atoms: _150  and  _152
REMARK   64  A    between atoms: _152  and  _153
REMARK   65  A    between atoms: _152  and  _155
REMARK   66  A    between atoms: _155  and  _156
REMARK   67  A    between atoms: _156  and  _157
REMARK   68  A    between atoms: _157  and  _158
REMARK   69  A    between atoms: _167  and  _169
REMARK   70  A    between atoms: _169  and  _170
REMARK   71  A    between atoms: _169  and  _172
REMARK   72  A    between atoms: _172  and  _173
REMARK   73  A    between atoms: _173  and  _174
REMARK   74  A    between atoms: _174  and  _175
REMARK   75  A    between atoms: _184  and  _186
REMARK   76  A    between atoms: _186  and  _187
REMARK   77  A    between atoms: _186  and  _189
REMARK   78  A    between atoms: _189  and  _190
REMARK   79  A    between atoms: _190  and  _191
REMARK   80  A    between atoms: _194  and  _196
REMARK   81  A    between atoms: _196  and  _197
REMARK   82  A    between atoms: _196  and  _199
REMARK   83  A    between atoms: _199  and  _200
REMARK   84  A    between atoms: _203  and  _205
REMARK   85  A    between atoms: _205  and  _206
REMARK   86  A    between atoms: _205  and  _208
REMARK   87  A    between atoms: _208  and  _209
REMARK   88  A    between atoms: _209  and  _210
REMARK   89  A    between atoms: _210  and  _211
REMARK   90  A    between atoms: _220  and  _222
REMARK   91  A    between atoms: _222  and  _223
REMARK   92  A    between atoms: _222  and  _225
REMARK   93  A    between atoms: _225  and  _226
REMARK   94  A    between atoms: _229  and  _231
REMARK   95  A    between atoms: _231  and  _232
REMARK   96  A    between atoms: _231  and  _234
REMARK   97  A    between atoms: _234  and  _235
REMARK   98  A    between atoms: _238  and  _240
REMARK   99  A    between atoms: _240  and  _241
REMARK  100  A    between atoms: _240  and  _243
REMARK  101  A    between atoms: _243  and  _244
REMARK  102  A    between atoms: _244  and  _245
REMARK  103  A    between atoms: _245  and  _246
REMARK  104  A    between atoms: _246  and  _247
REMARK  105  A    between atoms: _251  and  _253
REMARK  106  A    between atoms: _253  and  _254
REMARK  107  A    between atoms: _253  and  _256
REMARK  108  A    between atoms: _256  and  _257
REMARK  109  A    between atoms: _257  and  _258
REMARK  110  A    between atoms: _260  and  _262
REMARK  111  A    between atoms: _262  and  _263
REMARK  112  A    between atoms: _262  and  _265
REMARK  113  A    between atoms: _268  and  _270
REMARK  114  A    between atoms: _270  and  _271
REMARK  115  A    between atoms: _270  and  _273
REMARK  116  A    between atoms: _273  and  _274
REMARK  117  A    between atoms: _277  and  _279
REMARK  118  A    between atoms: _279  and  _280
REMARK  119  A    between atoms: _282  and  _284
REMARK  120  A    between atoms: _284  and  _285
REMARK  121  A    between atoms: _284  and  _287
REMARK  122  A    between atoms: _287  and  _288
REMARK  123  A    between atoms: _291  and  _293
REMARK  124  A    between atoms: _293  and  _294
REMARK  125  A    between atoms: _293  and  _296
REMARK  126  A    between atoms: _296  and  _297
REMARK  127  A    between atoms: _300  and  _302
REMARK  128  A    between atoms: _302  and  _303
REMARK  129  A    between atoms: _302  and  _305
REMARK  130  A    between atoms: _305  and  _306
REMARK  131  A    between atoms: _309  and  _311
REMARK  132  A    between atoms: _311  and  _312
REMARK  133  A    between atoms: _311  and  _314
REMARK  134  A    between atoms: _314  and  _315
REMARK  135  A    between atoms: _320  and  _321
REMARK  136  A    between atoms: _323  and  _325
REMARK  137  A    between atoms: _325  and  _326
REMARK  138  A    between atoms: _325  and  _328
REMARK  139  A    between atoms: _328  and  _329
REMARK  140  A    between atoms: _332  and  _334
REMARK  141  A    between atoms: _334  and  _335
REMARK  142  A    between atoms: _334  and  _337
REMARK  143  A    between atoms: _340  and  _342
REMARK  144  A    between atoms: _342  and  _343
REMARK  145  A    between atoms: _342  and  _345
REMARK  146  A    between atoms: _345  and  _346
REMARK  147  A    between atoms: _349  and  _351
REMARK  148  A    between atoms: _351  and  _352
REMARK  149  A    between atoms: _351  and  _354
REMARK  150  A    between atoms: _354  and  _355
REMARK  151  A    between atoms: _360  and  _362
REMARK  152  A    between atoms: _362  and  _363
REMARK  153  A    between atoms: _362  and  _365
REMARK  154  A    between atoms: _365  and  _366
REMARK  155  A    between atoms: _369  and  _371
REMARK  156  A    between atoms: _371  and  _372
REMARK  157  A    between atoms: _371  and  _374
REMARK  158  A    between atoms: _374  and  _375
REMARK  159  A    between atoms: _375  and  _376
REMARK  160  A    between atoms: _378  and  _380
REMARK  161  A    between atoms: _380  and  _381
REMARK  162  A    between atoms: _383  and  _385
REMARK  163  A    between atoms: _385  and  _386
REMARK  164  A    between atoms: _389  and  _391
REMARK  165  A    between atoms: _391  and  _392
REMARK  166  A    between atoms: _391  and  _394
REMARK  167  A    between atoms: _394  and  _395
REMARK  168  A    between atoms: _398  and  _400
REMARK  169  A    between atoms: _400  and  _401
REMARK  170  A    between atoms: _400  and  _403
REMARK  171  A    between atoms: _403  and  _404
REMARK  172  A    between atoms: _407  and  _409
REMARK  173  A    between atoms: _409  and  _410
REMARK  174  A    between atoms: _409  and  _412
REMARK  175  A    between atoms: _412  and  _413
REMARK  176  A    between atoms: _418  and  _420
REMARK  177  A    between atoms: _420  and  _421
REMARK  178  A    between atoms: _420  and  _423
REMARK  179  A    between atoms: _423  and  _424
REMARK  180  A    between atoms: _429  and  _431
REMARK  181  A    between atoms: _431  and  _432
REMARK  182  A    between atoms: _431  and  _434
REMARK  183  A    between atoms: _434  and  _435
REMARK  184  A    between atoms: _438  and  _440
REMARK  185  A    between atoms: _440  and  _441
REMARK  186  A    between atoms: _440  and  _443
REMARK  187  A    between atoms: _443  and  _444
REMARK  188  A    between atoms: _450  and  _451
REMARK  189  A    between atoms: _456  and  _458
REMARK  190  A    between atoms: _458  and  _459
REMARK  191  A    between atoms: _458  and  _461
REMARK  192  A    between atoms: _461  and  _462
REMARK  193  A    between atoms: _464  and  _466
REMARK  194  A    between atoms: _466  and  _467
REMARK  195  A    between atoms: _466  and  _469
REMARK  196  A    between atoms: _469  and  _470
REMARK  197  A    between atoms: _475  and  _477
REMARK  198  A    between atoms: _477  and  _478
REMARK  199  A    between atoms: _477  and  _480
REMARK  200  A    between atoms: _480  and  _481
REMARK  201  A    between atoms: _484  and  _486
REMARK  202  A    between atoms: _486  and  _487
REMARK  203  A    between atoms: _490  and  _492
REMARK  204  A    between atoms: _492  and  _493
REMARK  205  A    between atoms: _492  and  _495
REMARK  206  A    between atoms: _498  and  _500
REMARK  207  A    between atoms: _500  and  _501
REMARK  208  A    between atoms: _500  and  _503
REMARK  209  A    between atoms: _503  and  _504
REMARK  210  A    between atoms: _504  and  _505
REMARK  211  A    between atoms: _505  and  _506
REMARK  212  A    between atoms: _506  and  _507
REMARK  213  A    between atoms: _511  and  _513
REMARK  214  A    between atoms: _513  and  _514
REMARK  215  A    between atoms: _513  and  _516
REMARK  216  A    between atoms: _516  and  _517
REMARK  217  A    between atoms: _520  and  _522
REMARK  218  A    between atoms: _522  and  _523
REMARK  219  A    between atoms: _522  and  _525
REMARK  220  A    between atoms: _525  and  _526
REMARK  221  A    between atoms: _529  and  _531
REMARK  222  A    between atoms: _531  and  _532
REMARK  223  A    between atoms: _531  and  _534
REMARK  224  A    between atoms: _534  and  _535
REMARK  225  A    between atoms: _538  and  _540
REMARK  226  A    between atoms: _540  and  _541
REMARK  227  A    between atoms: _540  and  _543
REMARK  228  A    between atoms: _543  and  _544
REMARK  229  A    between atoms: _550  and  _552
REMARK  230  A    between atoms: _552  and  _553
REMARK  231  A    between atoms: _555  and  _557
REMARK  232  A    between atoms: _557  and  _558
REMARK  233  A    between atoms: _557  and  _560
REMARK  234  A    between atoms: _560  and  _561
REMARK                            x       y       z     vdW  Elec       q    Type
REMARK                         _______ _______ _______ _____ _____    ______ ____
ROOT
ATOM      1  O   HOH     1      37.952  37.413  35.854  0.00  0.00    +0.000 OA
ENDROOT
TORSDOF 0
REMARK  Name = ../refined-set-2016/3iph/3iph_pocket.pdb
REMARK  234 active torsions:
REMARK  status: ('A' for Active; 'I' for Inactive)
REMARK    1  A    between atoms: _1  and  _3
REMARK    2  A    between atoms: _3  and  _4
REMARK    3  A    between atoms: _3  and  _6
REMARK    4  A    between atoms: _9  and  _11
REMARK    5  A    between atoms: _11  and  _12
REMARK    6  A    between atoms: _14  and  _16
REMARK    7  A    between atoms: _16  and  _17
REMARK    8  A    between atoms: _16  and  _19
REMARK    9  A    between atoms: _19  and  _20
REMARK   10  A    between atoms: _22  and  _24
REMARK   11  A    between atoms: _24  and  _25
REMARK   12  A    between atoms: _27  and  _29
REMARK   13  A    between atoms: _29  and  _30
REMARK   14  A    between atoms: _33  and  _35
REMARK   15  A    between atoms: _35  and  _36
REMARK   16  A    between atoms: _35  and  _38
REMARK   17  A    between atoms: _38  and  _39
REMARK   18  A    between atoms: _44  and  _45
REMARK   19  A    between atoms: _47  and  _49
REMARK   20  A    between atoms: _49  and  _50
REMARK   21  A    between atoms: _49  and  _52
REMARK   22  A    between atoms: _52  and  _53
REMARK   23  A    between atoms: _55  and  _57
REMARK   24  A    between atoms: _57  and  _58
REMARK   25  A    between atoms: _57  and  _60
REMARK   26  A    between atoms: _63  and  _65
REMARK   27  A    between atoms: _65  and  _66
REMARK   28  A    between atoms: _65  and  _68
REMARK   29  A    between atoms: _70  and  _72
REMARK   30  A    between atoms: _72  and  _73
REMARK   31  A    between atoms: _76  and  _78
REMARK   32  A    between atoms: _78  and  _79
REMARK   33  A    between atoms: _78  and  _81
REMARK   34  A    between atoms: _81  and  _82
REMARK   35  A    between atoms: _82  and  _83
REMARK   36  A    between atoms: _83  and  _84
REMARK   37  A    between atoms: _93  and  _95
REMARK   38  A    between atoms: _95  and  _96
REMARK   39  A    between atoms: _95  and  _98
REMARK   40  A    between atoms: _101  and  _103
REMARK   41  A    between atoms: _103  and  _104
REMARK   42  A    between atoms: _107  and  _109
REMARK   43  A    between atoms: _109  and  _110
REMARK   44  A    between atoms: _109  and  _112
REMARK   45  A    between atoms: _115  and  _117
REMARK   46  A    between atoms: _117  and  _118
REMARK   47  A    between atoms: _117  and  _120
REMARK   48  A    between atoms: _120  and  _121
REMARK   49  A    between atoms: _121  and  _122
REMARK   50  A    between atoms: _122  and  _123
REMARK   51  A    between atoms: _123  and  _124
REMARK   52  A    between atoms: _128  and  _130
REMARK   53  A    between atoms: _130  and  _131
REMARK   54  A    between atoms: _130  and  _133
REMARK   55  A    between atoms: _133  and  _134
REMARK   56  A    between atoms: _134  and  _135
REMARK   57  A    between atoms: _135  and  _136
REMARK   58  A    between atoms: _136  and  _137
REMARK   59  A    between atoms: _141  and  _143
REMARK   60  A    between atoms: _143  and  _144
REMARK   61  A    between atoms: _143  and  _146
REMARK   62  A    between atoms: _146  and  _147
REMARK   63  A    between atoms: _150  and  _152
REMARK   64  A    between atoms: _152  and  _153
REMARK   65  A    between atoms: _152  and  _155
REMARK   66  A    between atoms: _155  and  _156
REMARK   67  A    between atoms: _156  and  _157
REMARK   68  A    between atoms: _157  and  _158
REMARK   69  A    between atoms: _167  and  _169
REMARK   70  A    between atoms: _169  and  _170
REMARK   71  A    between atoms: _169  and  _172
REMARK   72  A    between atoms: _172  and  _173
REMARK   73  A    between atoms: _173  and  _174
REMARK   74  A    between atoms: _174  and  _175
REMARK   75  A    between atoms: _184  and  _186
REMARK   76  A    between atoms: _186  and  _187
REMARK   77  A    between atoms: _186  and  _189
REMARK   78  A    between atoms: _189  and  _190
REMARK   79  A    between atoms: _190  and  _191
REMARK   80  A    between atoms: _194  and  _196
REMARK   81  A    between atoms: _196  and  _197
REMARK   82  A    between atoms: _196  and  _199
REMARK   83  A    between atoms: _199  and  _200
REMARK   84  A    between atoms: _203  and  _205
REMARK   85  A    between atoms: _205  and  _206
REMARK   86  A    between atoms: _205  and  _208
REMARK   87  A    between atoms: _208  and  _209
REMARK   88  A    between atoms: _209  and  _210
REMARK   89  A    between atoms: _210  and  _211
REMARK   90  A    between atoms: _220  and  _222
REMARK   91  A    between atoms: _222  and  _223
REMARK   92  A    between atoms: _222  and  _225
REMARK   93  A    between atoms: _225  and  _226
REMARK   94  A    between atoms: _229  and  _231
REMARK   95  A    between atoms: _231  and  _232
REMARK   96  A    between atoms: _231  and  _234
REMARK   97  A    between atoms: _234  and  _235
REMARK   98  A    between atoms: _238  and  _240
REMARK   99  A    between atoms: _240  and  _241
REMARK  100  A    between atoms: _240  and  _243
REMARK  101  A    between atoms: _243  and  _244
REMARK  102  A    between atoms: _244  and  _245
REMARK  103  A    between atoms: _245  and  _246
REMARK  104  A    between atoms: _246  and  _247
REMARK  105  A    between atoms: _251  and  _253
REMARK  106  A    between atoms: _253  and  _254
REMARK  107  A    between atoms: _253  and  _256
REMARK  108  A    between atoms: _256  and  _257
REMARK  109  A    between atoms: _257  and  _258
REMARK  110  A    between atoms: _260  and  _262
REMARK  111  A    between atoms: _262  and  _263
REMARK  112  A    between atoms: _262  and  _265
REMARK  113  A    between atoms: _268  and  _270
REMARK  114  A    between atoms: _270  and  _271
REMARK  115  A    between atoms: _270  and  _273
REMARK  116  A    between atoms: _273  and  _274
REMARK  117  A    between atoms: _277  and  _279
REMARK  118  A    between atoms: _279  and  _280
REMARK  119  A    between atoms: _282  and  _284
REMARK  120  A    between atoms: _284  and  _285
REMARK  121  A    between atoms: _284  and  _287
REMARK  122  A    between atoms: _287  and  _288
REMARK  123  A    between atoms: _291  and  _293
REMARK  124  A    between atoms: _293  and  _294
REMARK  125  A    between atoms: _293  and  _296
REMARK  126  A    between atoms: _296  and  _297
REMARK  127  A    between atoms: _300  and  _302
REMARK  128  A    between atoms: _302  and  _303
REMARK  129  A    between atoms: _302  and  _305
REMARK  130  A    between atoms: _305  and  _306
REMARK  131  A    between atoms: _309  and  _311
REMARK  132  A    between atoms: _311  and  _312
REMARK  133  A    between atoms: _311  and  _314
REMARK  134  A    between atoms: _314  and  _315
REMARK  135  A    between atoms: _320  and  _321
REMARK  136  A    between atoms: _323  and  _325
REMARK  137  A    between atoms: _325  and  _326
REMARK  138  A    between atoms: _325  and  _328
REMARK  139  A    between atoms: _328  and  _329
REMARK  140  A    between atoms: _332  and  _334
REMARK  141  A    between atoms: _334  and  _335
REMARK  142  A    between atoms: _334  and  _337
REMARK  143  A    between atoms: _340  and  _342
REMARK  144  A    between atoms: _342  and  _343
REMARK  145  A    between atoms: _342  and  _345
REMARK  146  A    between atoms: _345  and  _346
REMARK  147  A    between atoms: _349  and  _351
REMARK  148  A    between atoms: _351  and  _352
REMARK  149  A    between atoms: _351  and  _354
REMARK  150  A    between atoms: _354  and  _355
REMARK  151  A    between atoms: _360  and  _362
REMARK  152  A    between atoms: _362  and  _363
REMARK  153  A    between atoms: _362  and  _365
REMARK  154  A    between atoms: _365  and  _366
REMARK  155  A    between atoms: _369  and  _371
REMARK  156  A    between atoms: _371  and  _372
REMARK  157  A    between atoms: _371  and  _374
REMARK  158  A    between atoms: _374  and  _375
REMARK  159  A    between atoms: _375  and  _376
REMARK  160  A    between atoms: _378  and  _380
REMARK  161  A    between atoms: _380  and  _381
REMARK  162  A    between atoms: _383  and  _385
REMARK  163  A    between atoms: _385  and  _386
REMARK  164  A    between atoms: _389  and  _391
REMARK  165  A    between atoms: _391  and  _392
REMARK  166  A    between atoms: _391  and  _394
REMARK  167  A    between atoms: _394  and  _395
REMARK  168  A    between atoms: _398  and  _400
REMARK  169  A    between atoms: _400  and  _401
REMARK  170  A    between atoms: _400  and  _403
REMARK  171  A    between atoms: _403  and  _404
REMARK  172  A    between atoms: _407  and  _409
REMARK  173  A    between atoms: _409  and  _410
REMARK  174  A    between atoms: _409  and  _412
REMARK  175  A    between atoms: _412  and  _413
REMARK  176  A    between atoms: _418  and  _420
REMARK  177  A    between atoms: _420  and  _421
REMARK  178  A    between atoms: _420  and  _423
REMARK  179  A    between atoms: _423  and  _424
REMARK  180  A    between atoms: _429  and  _431
REMARK  181  A    between atoms: _431  and  _432
REMARK  182  A    between atoms: _431  and  _434
REMARK  183  A    between atoms: _434  and  _435
REMARK  184  A    between atoms: _438  and  _440
REMARK  185  A    between atoms: _440  and  _441
REMARK  186  A    between atoms: _440  and  _443
REMARK  187  A    between atoms: _443  and  _444
REMARK  188  A    between atoms: _450  and  _451
REMARK  189  A    between atoms: _456  and  _458
REMARK  190  A    between atoms: _458  and  _459
REMARK  191  A    between atoms: _458  and  _461
REMARK  192  A    between atoms: _461  and  _462
REMARK  193  A    between atoms: _464  and  _466
REMARK  194  A    between atoms: _466  and  _467
REMARK  195  A    between atoms: _466  and  _469
REMARK  196  A    between atoms: _469  and  _470
REMARK  197  A    between atoms: _475  and  _477
REMARK  198  A    between atoms: _477  and  _478
REMARK  199  A    between atoms: _477  and  _480
REMARK  200  A    between atoms: _480  and  _481
REMARK  201  A    between atoms: _484  and  _486
REMARK  202  A    between atoms: _486  and  _487
REMARK  203  A    between atoms: _490  and  _492
REMARK  204  A    between atoms: _492  and  _493
REMARK  205  A    between atoms: _492  and  _495
REMARK  206  A    between atoms: _498  and  _500
REMARK  207  A    between atoms: _500  and  _501
REMARK  208  A    between atoms: _500  and  _503
REMARK  209  A    between atoms: _503  and  _504
REMARK  210  A    between atoms: _504  and  _505
REMARK  211  A    between atoms: _505  and  _506
REMARK  212  A    between atoms: _506  and  _507
REMARK  213  A    between atoms: _511  and  _513
REMARK  214  A    between atoms: _513  and  _514
REMARK  215  A    between atoms: _513  and  _516
REMARK  216  A    between atoms: _516  and  _517
REMARK  217  A    between atoms: _520  and  _522
REMARK  218  A    between atoms: _522  and  _523
REMARK  219  A    between atoms: _522  and  _525
REMARK  220  A    between atoms: _525  and  _526
REMARK  221  A    between atoms: _529  and  _531
REMARK  222  A    between atoms: _531  and  _532
REMARK  223  A    between atoms: _531  and  _534
REMARK  224  A    between atoms: _534  and  _535
REMARK  225  A    between atoms: _538  and  _540
REMARK  226  A    between atoms: _540  and  _541
REMARK  227  A    between atoms: _540  and  _543
REMARK  228  A    between atoms: _543  and  _544
REMARK  229  A    between atoms: _550  and  _552
REMARK  230  A    between atoms: _552  and  _553
REMARK  231  A    between atoms: _555  and  _557
REMARK  232  A    between atoms: _557  and  _558
REMARK  233  A    between atoms: _557  and  _560
REMARK  234  A    between atoms: _560  and  _561
REMARK                            x       y       z     vdW  Elec       q    Type
REMARK                         _______ _______ _______ _____ _____    ______ ____
ROOT
ATOM      1  O   HOH     1      41.597  21.528  39.778  0.00  0.00    +0.000 OA
ENDROOT
TORSDOF 0
REMARK  Name = ../refined-set-2016/3iph/3iph_pocket.pdb
REMARK  234 active torsions:
REMARK  status: ('A' for Active; 'I' for Inactive)
REMARK    1  A    between atoms: _1  and  _3
REMARK    2  A    between atoms: _3  and  _4
REMARK    3  A    between atoms: _3  and  _6
REMARK    4  A    between atoms: _9  and  _11
REMARK    5  A    between atoms: _11  and  _12
REMARK    6  A    between atoms: _14  and  _16
REMARK    7  A    between atoms: _16  and  _17
REMARK    8  A    between atoms: _16  and  _19
REMARK    9  A    between atoms: _19  and  _20
REMARK   10  A    between atoms: _22  and  _24
REMARK   11  A    between atoms: _24  and  _25
REMARK   12  A    between atoms: _27  and  _29
REMARK   13  A    between atoms: _29  and  _30
REMARK   14  A    between atoms: _33  and  _35
REMARK   15  A    between atoms: _35  and  _36
REMARK   16  A    between atoms: _35  and  _38
REMARK   17  A    between atoms: _38  and  _39
REMARK   18  A    between atoms: _44  and  _45
REMARK   19  A    between atoms: _47  and  _49
REMARK   20  A    between atoms: _49  and  _50
REMARK   21  A    between atoms: _49  and  _52
REMARK   22  A    between atoms: _52  and  _53
REMARK   23  A    between atoms: _55  and  _57
REMARK   24  A    between atoms: _57  and  _58
REMARK   25  A    between atoms: _57  and  _60
REMARK   26  A    between atoms: _63  and  _65
REMARK   27  A    between atoms: _65  and  _66
REMARK   28  A    between atoms: _65  and  _68
REMARK   29  A    between atoms: _70  and  _72
REMARK   30  A    between atoms: _72  and  _73
REMARK   31  A    between atoms: _76  and  _78
REMARK   32  A    between atoms: _78  and  _79
REMARK   33  A    between atoms: _78  and  _81
REMARK   34  A    between atoms: _81  and  _82
REMARK   35  A    between atoms: _82  and  _83
REMARK   36  A    between atoms: _83  and  _84
REMARK   37  A    between atoms: _93  and  _95
REMARK   38  A    between atoms: _95  and  _96
REMARK   39  A    between atoms: _95  and  _98
REMARK   40  A    between atoms: _101  and  _103
REMARK   41  A    between atoms: _103  and  _104
REMARK   42  A    between atoms: _107  and  _109
REMARK   43  A    between atoms: _109  and  _110
REMARK   44  A    between atoms: _109  and  _112
REMARK   45  A    between atoms: _115  and  _117
REMARK   46  A    between atoms: _117  and  _118
REMARK   47  A    between atoms: _117  and  _120
REMARK   48  A    between atoms: _120  and  _121
REMARK   49  A    between atoms: _121  and  _122
REMARK   50  A    between atoms: _122  and  _123
REMARK   51  A    between atoms: _123  and  _124
REMARK   52  A    between atoms: _128  and  _130
REMARK   53  A    between atoms: _130  and  _131
REMARK   54  A    between atoms: _130  and  _133
REMARK   55  A    between atoms: _133  and  _134
REMARK   56  A    between atoms: _134  and  _135
REMARK   57  A    between atoms: _135  and  _136
REMARK   58  A    between atoms: _136  and  _137
REMARK   59  A    between atoms: _141  and  _143
REMARK   60  A    between atoms: _143  and  _144
REMARK   61  A    between atoms: _143  and  _146
REMARK   62  A    between atoms: _146  and  _147
REMARK   63  A    between atoms: _150  and  _152
REMARK   64  A    between atoms: _152  and  _153
REMARK   65  A    between atoms: _152  and  _155
REMARK   66  A    between atoms: _155  and  _156
REMARK   67  A    between atoms: _156  and  _157
REMARK   68  A    between atoms: _157  and  _158
REMARK   69  A    between atoms: _167  and  _169
REMARK   70  A    between atoms: _169  and  _170
REMARK   71  A    between atoms: _169  and  _172
REMARK   72  A    between atoms: _172  and  _173
REMARK   73  A    between atoms: _173  and  _174
REMARK   74  A    between atoms: _174  and  _175
REMARK   75  A    between atoms: _184  and  _186
REMARK   76  A    between atoms: _186  and  _187
REMARK   77  A    between atoms: _186  and  _189
REMARK   78  A    between atoms: _189  and  _190
REMARK   79  A    between atoms: _190  and  _191
REMARK   80  A    between atoms: _194  and  _196
REMARK   81  A    between atoms: _196  and  _197
REMARK   82  A    between atoms: _196  and  _199
REMARK   83  A    between atoms: _199  and  _200
REMARK   84  A    between atoms: _203  and  _205
REMARK   85  A    between atoms: _205  and  _206
REMARK   86  A    between atoms: _205  and  _208
REMARK   87  A    between atoms: _208  and  _209
REMARK   88  A    between atoms: _209  and  _210
REMARK   89  A    between atoms: _210  and  _211
REMARK   90  A    between atoms: _220  and  _222
REMARK   91  A    between atoms: _222  and  _223
REMARK   92  A    between atoms: _222  and  _225
REMARK   93  A    between atoms: _225  and  _226
REMARK   94  A    between atoms: _229  and  _231
REMARK   95  A    between atoms: _231  and  _232
REMARK   96  A    between atoms: _231  and  _234
REMARK   97  A    between atoms: _234  and  _235
REMARK   98  A    between atoms: _238  and  _240
REMARK   99  A    between atoms: _240  and  _241
REMARK  100  A    between atoms: _240  and  _243
REMARK  101  A    between atoms: _243  and  _244
REMARK  102  A    between atoms: _244  and  _245
REMARK  103  A    between atoms: _245  and  _246
REMARK  104  A    between atoms: _246  and  _247
REMARK  105  A    between atoms: _251  and  _253
REMARK  106  A    between atoms: _253  and  _254
REMARK  107  A    between atoms: _253  and  _256
REMARK  108  A    between atoms: _256  and  _257
REMARK  109  A    between atoms: _257  and  _258
REMARK  110  A    between atoms: _260  and  _262
REMARK  111  A    between atoms: _262  and  _263
REMARK  112  A    between atoms: _262  and  _265
REMARK  113  A    between atoms: _268  and  _270
REMARK  114  A    between atoms: _270  and  _271
REMARK  115  A    between atoms: _270  and  _273
REMARK  116  A    between atoms: _273  and  _274
REMARK  117  A    between atoms: _277  and  _279
REMARK  118  A    between atoms: _279  and  _280
REMARK  119  A    between atoms: _282  and  _284
REMARK  120  A    between atoms: _284  and  _285
REMARK  121  A    between atoms: _284  and  _287
REMARK  122  A    between atoms: _287  and  _288
REMARK  123  A    between atoms: _291  and  _293
REMARK  124  A    between atoms: _293  and  _294
REMARK  125  A    between atoms: _293  and  _296
REMARK  126  A    between atoms: _296  and  _297
REMARK  127  A    between atoms: _300  and  _302
REMARK  128  A    between atoms: _302  and  _303
REMARK  129  A    between atoms: _302  and  _305
REMARK  130  A    between atoms: _305  and  _306
REMARK  131  A    between atoms: _309  and  _311
REMARK  132  A    between atoms: _311  and  _312
REMARK  133  A    between atoms: _311  and  _314
REMARK  134  A    between atoms: _314  and  _315
REMARK  135  A    between atoms: _320  and  _321
REMARK  136  A    between atoms: _323  and  _325
REMARK  137  A    between atoms: _325  and  _326
REMARK  138  A    between atoms: _325  and  _328
REMARK  139  A    between atoms: _328  and  _329
REMARK  140  A    between atoms: _332  and  _334
REMARK  141  A    between atoms: _334  and  _335
REMARK  142  A    between atoms: _334  and  _337
REMARK  143  A    between atoms: _340  and  _342
REMARK  144  A    between atoms: _342  and  _343
REMARK  145  A    between atoms: _342  and  _345
REMARK  146  A    between atoms: _345  and  _346
REMARK  147  A    between atoms: _349  and  _351
REMARK  148  A    between atoms: _351  and  _352
REMARK  149  A    between atoms: _351  and  _354
REMARK  150  A    between atoms: _354  and  _355
REMARK  151  A    between atoms: _360  and  _362
REMARK  152  A    between atoms: _362  and  _363
REMARK  153  A    between atoms: _362  and  _365
REMARK  154  A    between atoms: _365  and  _366
REMARK  155  A    between atoms: _369  and  _371
REMARK  156  A    between atoms: _371  and  _372
REMARK  157  A    between atoms: _371  and  _374
REMARK  158  A    between atoms: _374  and  _375
REMARK  159  A    between atoms: _375  and  _376
REMARK  160  A    between atoms: _378  and  _380
REMARK  161  A    between atoms: _380  and  _381
REMARK  162  A    between atoms: _383  and  _385
REMARK  163  A    between atoms: _385  and  _386
REMARK  164  A    between atoms: _389  and  _391
REMARK  165  A    between atoms: _391  and  _392
REMARK  166  A    between atoms: _391  and  _394
REMARK  167  A    between atoms: _394  and  _395
REMARK  168  A    between atoms: _398  and  _400
REMARK  169  A    between atoms: _400  and  _401
REMARK  170  A    between atoms: _400  and  _403
REMARK  171  A    between atoms: _403  and  _404
REMARK  172  A    between atoms: _407  and  _409
REMARK  173  A    between atoms: _409  and  _410
REMARK  174  A    between atoms: _409  and  _412
REMARK  175  A    between atoms: _412  and  _413
REMARK  176  A    between atoms: _418  and  _420
REMARK  177  A    between atoms: _420  and  _421
REMARK  178  A    between atoms: _420  and  _423
REMARK  179  A    between atoms: _423  and  _424
REMARK  180  A    between atoms: _429  and  _431
REMARK  181  A    between atoms: _431  and  _432
REMARK  182  A    between atoms: _431  and  _434
REMARK  183  A    between atoms: _434  and  _435
REMARK  184  A    between atoms: _438  and  _440
REMARK  185  A    between atoms: _440  and  _441
REMARK  186  A    between atoms: _440  and  _443
REMARK  187  A    between atoms: _443  and  _444
REMARK  188  A    between atoms: _450  and  _451
REMARK  189  A    between atoms: _456  and  _458
REMARK  190  A    between atoms: _458  and  _459
REMARK  191  A    between atoms: _458  and  _461
REMARK  192  A    between atoms: _461  and  _462
REMARK  193  A    between atoms: _464  and  _466
REMARK  194  A    between atoms: _466  and  _467
REMARK  195  A    between atoms: _466  and  _469
REMARK  196  A    between atoms: _469  and  _470
REMARK  197  A    between atoms: _475  and  _477
REMARK  198  A    between atoms: _477  and  _478
REMARK  199  A    between atoms: _477  and  _480
REMARK  200  A    between atoms: _480  and  _481
REMARK  201  A    between atoms: _484  and  _486
REMARK  202  A    between atoms: _486  and  _487
REMARK  203  A    between atoms: _490  and  _492
REMARK  204  A    between atoms: _492  and  _493
REMARK  205  A    between atoms: _492  and  _495
REMARK  206  A    between atoms: _498  and  _500
REMARK  207  A    between atoms: _500  and  _501
REMARK  208  A    between atoms: _500  and  _503
REMARK  209  A    between atoms: _503  and  _504
REMARK  210  A    between atoms: _504  and  _505
REMARK  211  A    between atoms: _505  and  _506
REMARK  212  A    between atoms: _506  and  _507
REMARK  213  A    between atoms: _511  and  _513
REMARK  214  A    between atoms: _513  and  _514
REMARK  215  A    between atoms: _513  and  _516
REMARK  216  A    between atoms: _516  and  _517
REMARK  217  A    between atoms: _520  and  _522
REMARK  218  A    between atoms: _522  and  _523
REMARK  219  A    between atoms: _522  and  _525
REMARK  220  A    between atoms: _525  and  _526
REMARK  221  A    between atoms: _529  and  _531
REMARK  222  A    between atoms: _531  and  _532
REMARK  223  A    between atoms: _531  and  _534
REMARK  224  A    between atoms: _534  and  _535
REMARK  225  A    between atoms: _538  and  _540
REMARK  226  A    between atoms: _540  and  _541
REMARK  227  A    between atoms: _540  and  _543
REMARK  228  A    between atoms: _543  and  _544
REMARK  229  A    between atoms: _550  and  _552
REMARK  230  A    between atoms: _552  and  _553
REMARK  231  A    between atoms: _555  and  _557
REMARK  232  A    between atoms: _557  and  _558
REMARK  233  A    between atoms: _557  and  _560
REMARK  234  A    between atoms: _560  and  _561
REMARK                            x       y       z     vdW  Elec       q    Type
REMARK                         _______ _______ _______ _____ _____    ______ ____
ROOT
ATOM      1  O   HOH     1      41.716  27.150  32.020  0.00  0.00    +0.000 OA
ENDROOT
TORSDOF 0
REMARK  Name = ../refined-set-2016/3iph/3iph_pocket.pdb
REMARK  234 active torsions:
REMARK  status: ('A' for Active; 'I' for Inactive)
REMARK    1  A    between atoms: _1  and  _3
REMARK    2  A    between atoms: _3  and  _4
REMARK    3  A    between atoms: _3  and  _6
REMARK    4  A    between atoms: _9  and  _11
REMARK    5  A    between atoms: _11  and  _12
REMARK    6  A    between atoms: _14  and  _16
REMARK    7  A    between atoms: _16  and  _17
REMARK    8  A    between atoms: _16  and  _19
REMARK    9  A    between atoms: _19  and  _20
REMARK   10  A    between atoms: _22  and  _24
REMARK   11  A    between atoms: _24  and  _25
REMARK   12  A    between atoms: _27  and  _29
REMARK   13  A    between atoms: _29  and  _30
REMARK   14  A    between atoms: _33  and  _35
REMARK   15  A    between atoms: _35  and  _36
REMARK   16  A    between atoms: _35  and  _38
REMARK   17  A    between atoms: _38  and  _39
REMARK   18  A    between atoms: _44  and  _45
REMARK   19  A    between atoms: _47  and  _49
REMARK   20  A    between atoms: _49  and  _50
REMARK   21  A    between atoms: _49  and  _52
REMARK   22  A    between atoms: _52  and  _53
REMARK   23  A    between atoms: _55  and  _57
REMARK   24  A    between atoms: _57  and  _58
REMARK   25  A    between atoms: _57  and  _60
REMARK   26  A    between atoms: _63  and  _65
REMARK   27  A    between atoms: _65  and  _66
REMARK   28  A    between atoms: _65  and  _68
REMARK   29  A    between atoms: _70  and  _72
REMARK   30  A    between atoms: _72  and  _73
REMARK   31  A    between atoms: _76  and  _78
REMARK   32  A    between atoms: _78  and  _79
REMARK   33  A    between atoms: _78  and  _81
REMARK   34  A    between atoms: _81  and  _82
REMARK   35  A    between atoms: _82  and  _83
REMARK   36  A    between atoms: _83  and  _84
REMARK   37  A    between atoms: _93  and  _95
REMARK   38  A    between atoms: _95  and  _96
REMARK   39  A    between atoms: _95  and  _98
REMARK   40  A    between atoms: _101  and  _103
REMARK   41  A    between atoms: _103  and  _104
REMARK   42  A    between atoms: _107  and  _109
REMARK   43  A    between atoms: _109  and  _110
REMARK   44  A    between atoms: _109  and  _112
REMARK   45  A    between atoms: _115  and  _117
REMARK   46  A    between atoms: _117  and  _118
REMARK   47  A    between atoms: _117  and  _120
REMARK   48  A    between atoms: _120  and  _121
REMARK   49  A    between atoms: _121  and  _122
REMARK   50  A    between atoms: _122  and  _123
REMARK   51  A    between atoms: _123  and  _124
REMARK   52  A    between atoms: _128  and  _130
REMARK   53  A    between atoms: _130  and  _131
REMARK   54  A    between atoms: _130  and  _133
REMARK   55  A    between atoms: _133  and  _134
REMARK   56  A    between atoms: _134  and  _135
REMARK   57  A    between atoms: _135  and  _136
REMARK   58  A    between atoms: _136  and  _137
REMARK   59  A    between atoms: _141  and  _143
REMARK   60  A    between atoms: _143  and  _144
REMARK   61  A    between atoms: _143  and  _146
REMARK   62  A    between atoms: _146  and  _147
REMARK   63  A    between atoms: _150  and  _152
REMARK   64  A    between atoms: _152  and  _153
REMARK   65  A    between atoms: _152  and  _155
REMARK   66  A    between atoms: _155  and  _156
REMARK   67  A    between atoms: _156  and  _157
REMARK   68  A    between atoms: _157  and  _158
REMARK   69  A    between atoms: _167  and  _169
REMARK   70  A    between atoms: _169  and  _170
REMARK   71  A    between atoms: _169  and  _172
REMARK   72  A    between atoms: _172  and  _173
REMARK   73  A    between atoms: _173  and  _174
REMARK   74  A    between atoms: _174  and  _175
REMARK   75  A    between atoms: _184  and  _186
REMARK   76  A    between atoms: _186  and  _187
REMARK   77  A    between atoms: _186  and  _189
REMARK   78  A    between atoms: _189  and  _190
REMARK   79  A    between atoms: _190  and  _191
REMARK   80  A    between atoms: _194  and  _196
REMARK   81  A    between atoms: _196  and  _197
REMARK   82  A    between atoms: _196  and  _199
REMARK   83  A    between atoms: _199  and  _200
REMARK   84  A    between atoms: _203  and  _205
REMARK   85  A    between atoms: _205  and  _206
REMARK   86  A    between atoms: _205  and  _208
REMARK   87  A    between atoms: _208  and  _209
REMARK   88  A    between atoms: _209  and  _210
REMARK   89  A    between atoms: _210  and  _211
REMARK   90  A    between atoms: _220  and  _222
REMARK   91  A    between atoms: _222  and  _223
REMARK   92  A    between atoms: _222  and  _225
REMARK   93  A    between atoms: _225  and  _226
REMARK   94  A    between atoms: _229  and  _231
REMARK   95  A    between atoms: _231  and  _232
REMARK   96  A    between atoms: _231  and  _234
REMARK   97  A    between atoms: _234  and  _235
REMARK   98  A    between atoms: _238  and  _240
REMARK   99  A    between atoms: _240  and  _241
REMARK  100  A    between atoms: _240  and  _243
REMARK  101  A    between atoms: _243  and  _244
REMARK  102  A    between atoms: _244  and  _245
REMARK  103  A    between atoms: _245  and  _246
REMARK  104  A    between atoms: _246  and  _247
REMARK  105  A    between atoms: _251  and  _253
REMARK  106  A    between atoms: _253  and  _254
REMARK  107  A    between atoms: _253  and  _256
REMARK  108  A    between atoms: _256  and  _257
REMARK  109  A    between atoms: _257  and  _258
REMARK  110  A    between atoms: _260  and  _262
REMARK  111  A    between atoms: _262  and  _263
REMARK  112  A    between atoms: _262  and  _265
REMARK  113  A    between atoms: _268  and  _270
REMARK  114  A    between atoms: _270  and  _271
REMARK  115  A    between atoms: _270  and  _273
REMARK  116  A    between atoms: _273  and  _274
REMARK  117  A    between atoms: _277  and  _279
REMARK  118  A    between atoms: _279  and  _280
REMARK  119  A    between atoms: _282  and  _284
REMARK  120  A    between atoms: _284  and  _285
REMARK  121  A    between atoms: _284  and  _287
REMARK  122  A    between atoms: _287  and  _288
REMARK  123  A    between atoms: _291  and  _293
REMARK  124  A    between atoms: _293  and  _294
REMARK  125  A    between atoms: _293  and  _296
REMARK  126  A    between atoms: _296  and  _297
REMARK  127  A    between atoms: _300  and  _302
REMARK  128  A    between atoms: _302  and  _303
REMARK  129  A    between atoms: _302  and  _305
REMARK  130  A    between atoms: _305  and  _306
REMARK  131  A    between atoms: _309  and  _311
REMARK  132  A    between atoms: _311  and  _312
REMARK  133  A    between atoms: _311  and  _314
REMARK  134  A    between atoms: _314  and  _315
REMARK  135  A    between atoms: _320  and  _321
REMARK  136  A    between atoms: _323  and  _325
REMARK  137  A    between atoms: _325  and  _326
REMARK  138  A    between atoms: _325  and  _328
REMARK  139  A    between atoms: _328  and  _329
REMARK  140  A    between atoms: _332  and  _334
REMARK  141  A    between atoms: _334  and  _335
REMARK  142  A    between atoms: _334  and  _337
REMARK  143  A    between atoms: _340  and  _342
REMARK  144  A    between atoms: _342  and  _343
REMARK  145  A    between atoms: _342  and  _345
REMARK  146  A    between atoms: _345  and  _346
REMARK  147  A    between atoms: _349  and  _351
REMARK  148  A    between atoms: _351  and  _352
REMARK  149  A    between atoms: _351  and  _354
REMARK  150  A    between atoms: _354  and  _355
REMARK  151  A    between atoms: _360  and  _362
REMARK  152  A    between atoms: _362  and  _363
REMARK  153  A    between atoms: _362  and  _365
REMARK  154  A    between atoms: _365  and  _366
REMARK  155  A    between atoms: _369  and  _371
REMARK  156  A    between atoms: _371  and  _372
REMARK  157  A    between atoms: _371  and  _374
REMARK  158  A    between atoms: _374  and  _375
REMARK  159  A    between atoms: _375  and  _376
REMARK  160  A    between atoms: _378  and  _380
REMARK  161  A    between atoms: _380  and  _381
REMARK  162  A    between atoms: _383  and  _385
REMARK  163  A    between atoms: _385  and  _386
REMARK  164  A    between atoms: _389  and  _391
REMARK  165  A    between atoms: _391  and  _392
REMARK  166  A    between atoms: _391  and  _394
REMARK  167  A    between atoms: _394  and  _395
REMARK  168  A    between atoms: _398  and  _400
REMARK  169  A    between atoms: _400  and  _401
REMARK  170  A    between atoms: _400  and  _403
REMARK  171  A    between atoms: _403  and  _404
REMARK  172  A    between atoms: _407  and  _409
REMARK  173  A    between atoms: _409  and  _410
REMARK  174  A    between atoms: _409  and  _412
REMARK  175  A    between atoms: _412  and  _413
REMARK  176  A    between atoms: _418  and  _420
REMARK  177  A    between atoms: _420  and  _421
REMARK  178  A    between atoms: _420  and  _423
REMARK  179  A    between atoms: _423  and  _424
REMARK  180  A    between atoms: _429  and  _431
REMARK  181  A    between atoms: _431  and  _432
REMARK  182  A    between atoms: _431  and  _434
REMARK  183  A    between atoms: _434  and  _435
REMARK  184  A    between atoms: _438  and  _440
REMARK  185  A    between atoms: _440  and  _441
REMARK  186  A    between atoms: _440  and  _443
REMARK  187  A    between atoms: _443  and  _444
REMARK  188  A    between atoms: _450  and  _451
REMARK  189  A    between atoms: _456  and  _458
REMARK  190  A    between atoms: _458  and  _459
REMARK  191  A    between atoms: _458  and  _461
REMARK  192  A    between atoms: _461  and  _462
REMARK  193  A    between atoms: _464  and  _466
REMARK  194  A    between atoms: _466  and  _467
REMARK  195  A    between atoms: _466  and  _469
REMARK  196  A    between atoms: _469  and  _470
REMARK  197  A    between atoms: _475  and  _477
REMARK  198  A    between atoms: _477  and  _478
REMARK  199  A    between atoms: _477  and  _480
REMARK  200  A    between atoms: _480  and  _481
REMARK  201  A    between atoms: _484  and  _486
REMARK  202  A    between atoms: _486  and  _487
REMARK  203  A    between atoms: _490  and  _492
REMARK  204  A    between atoms: _492  and  _493
REMARK  205  A    between atoms: _492  and  _495
REMARK  206  A    between atoms: _498  and  _500
REMARK  207  A    between atoms: _500  and  _501
REMARK  208  A    between atoms: _500  and  _503
REMARK  209  A    between atoms: _503  and  _504
REMARK  210  A    between atoms: _504  and  _505
REMARK  211  A    between atoms: _505  and  _506
REMARK  212  A    between atoms: _506  and  _507
REMARK  213  A    between atoms: _511  and  _513
REMARK  214  A    between atoms: _513  and  _514
REMARK  215  A    between atoms: _513  and  _516
REMARK  216  A    between atoms: _516  and  _517
REMARK  217  A    between atoms: _520  and  _522
REMARK  218  A    between atoms: _522  and  _523
REMARK  219  A    between atoms: _522  and  _525
REMARK  220  A    between atoms: _525  and  _526
REMARK  221  A    between atoms: _529  and  _531
REMARK  222  A    between atoms: _531  and  _532
REMARK  223  A    between atoms: _531  and  _534
REMARK  224  A    between atoms: _534  and  _535
REMARK  225  A    between atoms: _538  and  _540
REMARK  226  A    between atoms: _540  and  _541
REMARK  227  A    between atoms: _540  and  _543
REMARK  228  A    between atoms: _543  and  _544
REMARK  229  A    between atoms: _550  and  _552
REMARK  230  A    between atoms: _552  and  _553
REMARK  231  A    between atoms: _555  and  _557
REMARK  232  A    between atoms: _557  and  _558
REMARK  233  A    between atoms: _557  and  _560
REMARK  234  A    between atoms: _560  and  _561
REMARK                            x       y       z     vdW  Elec       q    Type
REMARK                         _______ _______ _______ _____ _____    ______ ____
ROOT
ATOM      1  O   HOH     1      45.137  41.989  34.956  0.00  0.00    +0.000 OA
ENDROOT
TORSDOF 0
REMARK  Name = ../refined-set-2016/3iph/3iph_pocket.pdb
REMARK  234 active torsions:
REMARK  status: ('A' for Active; 'I' for Inactive)
REMARK    1  A    between atoms: _1  and  _3
REMARK    2  A    between atoms: _3  and  _4
REMARK    3  A    between atoms: _3  and  _6
REMARK    4  A    between atoms: _9  and  _11
REMARK    5  A    between atoms: _11  and  _12
REMARK    6  A    between atoms: _14  and  _16
REMARK    7  A    between atoms: _16  and  _17
REMARK    8  A    between atoms: _16  and  _19
REMARK    9  A    between atoms: _19  and  _20
REMARK   10  A    between atoms: _22  and  _24
REMARK   11  A    between atoms: _24  and  _25
REMARK   12  A    between atoms: _27  and  _29
REMARK   13  A    between atoms: _29  and  _30
REMARK   14  A    between atoms: _33  and  _35
REMARK   15  A    between atoms: _35  and  _36
REMARK   16  A    between atoms: _35  and  _38
REMARK   17  A    between atoms: _38  and  _39
REMARK   18  A    between atoms: _44  and  _45
REMARK   19  A    between atoms: _47  and  _49
REMARK   20  A    between atoms: _49  and  _50
REMARK   21  A    between atoms: _49  and  _52
REMARK   22  A    between atoms: _52  and  _53
REMARK   23  A    between atoms: _55  and  _57
REMARK   24  A    between atoms: _57  and  _58
REMARK   25  A    between atoms: _57  and  _60
REMARK   26  A    between atoms: _63  and  _65
REMARK   27  A    between atoms: _65  and  _66
REMARK   28  A    between atoms: _65  and  _68
REMARK   29  A    between atoms: _70  and  _72
REMARK   30  A    between atoms: _72  and  _73
REMARK   31  A    between atoms: _76  and  _78
REMARK   32  A    between atoms: _78  and  _79
REMARK   33  A    between atoms: _78  and  _81
REMARK   34  A    between atoms: _81  and  _82
REMARK   35  A    between atoms: _82  and  _83
REMARK   36  A    between atoms: _83  and  _84
REMARK   37  A    between atoms: _93  and  _95
REMARK   38  A    between atoms: _95  and  _96
REMARK   39  A    between atoms: _95  and  _98
REMARK   40  A    between atoms: _101  and  _103
REMARK   41  A    between atoms: _103  and  _104
REMARK   42  A    between atoms: _107  and  _109
REMARK   43  A    between atoms: _109  and  _110
REMARK   44  A    between atoms: _109  and  _112
REMARK   45  A    between atoms: _115  and  _117
REMARK   46  A    between atoms: _117  and  _118
REMARK   47  A    between atoms: _117  and  _120
REMARK   48  A    between atoms: _120  and  _121
REMARK   49  A    between atoms: _121  and  _122
REMARK   50  A    between atoms: _122  and  _123
REMARK   51  A    between atoms: _123  and  _124
REMARK   52  A    between atoms: _128  and  _130
REMARK   53  A    between atoms: _130  and  _131
REMARK   54  A    between atoms: _130  and  _133
REMARK   55  A    between atoms: _133  and  _134
REMARK   56  A    between atoms: _134  and  _135
REMARK   57  A    between atoms: _135  and  _136
REMARK   58  A    between atoms: _136  and  _137
REMARK   59  A    between atoms: _141  and  _143
REMARK   60  A    between atoms: _143  and  _144
REMARK   61  A    between atoms: _143  and  _146
REMARK   62  A    between atoms: _146  and  _147
REMARK   63  A    between atoms: _150  and  _152
REMARK   64  A    between atoms: _152  and  _153
REMARK   65  A    between atoms: _152  and  _155
REMARK   66  A    between atoms: _155  and  _156
REMARK   67  A    between atoms: _156  and  _157
REMARK   68  A    between atoms: _157  and  _158
REMARK   69  A    between atoms: _167  and  _169
REMARK   70  A    between atoms: _169  and  _170
REMARK   71  A    between atoms: _169  and  _172
REMARK   72  A    between atoms: _172  and  _173
REMARK   73  A    between atoms: _173  and  _174
REMARK   74  A    between atoms: _174  and  _175
REMARK   75  A    between atoms: _184  and  _186
REMARK   76  A    between atoms: _186  and  _187
REMARK   77  A    between atoms: _186  and  _189
REMARK   78  A    between atoms: _189  and  _190
REMARK   79  A    between atoms: _190  and  _191
REMARK   80  A    between atoms: _194  and  _196
REMARK   81  A    between atoms: _196  and  _197
REMARK   82  A    between atoms: _196  and  _199
REMARK   83  A    between atoms: _199  and  _200
REMARK   84  A    between atoms: _203  and  _205
REMARK   85  A    between atoms: _205  and  _206
REMARK   86  A    between atoms: _205  and  _208
REMARK   87  A    between atoms: _208  and  _209
REMARK   88  A    between atoms: _209  and  _210
REMARK   89  A    between atoms: _210  and  _211
REMARK   90  A    between atoms: _220  and  _222
REMARK   91  A    between atoms: _222  and  _223
REMARK   92  A    between atoms: _222  and  _225
REMARK   93  A    between atoms: _225  and  _226
REMARK   94  A    between atoms: _229  and  _231
REMARK   95  A    between atoms: _231  and  _232
REMARK   96  A    between atoms: _231  and  _234
REMARK   97  A    between atoms: _234  and  _235
REMARK   98  A    between atoms: _238  and  _240
REMARK   99  A    between atoms: _240  and  _241
REMARK  100  A    between atoms: _240  and  _243
REMARK  101  A    between atoms: _243  and  _244
REMARK  102  A    between atoms: _244  and  _245
REMARK  103  A    between atoms: _245  and  _246
REMARK  104  A    between atoms: _246  and  _247
REMARK  105  A    between atoms: _251  and  _253
REMARK  106  A    between atoms: _253  and  _254
REMARK  107  A    between atoms: _253  and  _256
REMARK  108  A    between atoms: _256  and  _257
REMARK  109  A    between atoms: _257  and  _258
REMARK  110  A    between atoms: _260  and  _262
REMARK  111  A    between atoms: _262  and  _263
REMARK  112  A    between atoms: _262  and  _265
REMARK  113  A    between atoms: _268  and  _270
REMARK  114  A    between atoms: _270  and  _271
REMARK  115  A    between atoms: _270  and  _273
REMARK  116  A    between atoms: _273  and  _274
REMARK  117  A    between atoms: _277  and  _279
REMARK  118  A    between atoms: _279  and  _280
REMARK  119  A    between atoms: _282  and  _284
REMARK  120  A    between atoms: _284  and  _285
REMARK  121  A    between atoms: _284  and  _287
REMARK  122  A    between atoms: _287  and  _288
REMARK  123  A    between atoms: _291  and  _293
REMARK  124  A    between atoms: _293  and  _294
REMARK  125  A    between atoms: _293  and  _296
REMARK  126  A    between atoms: _296  and  _297
REMARK  127  A    between atoms: _300  and  _302
REMARK  128  A    between atoms: _302  and  _303
REMARK  129  A    between atoms: _302  and  _305
REMARK  130  A    between atoms: _305  and  _306
REMARK  131  A    between atoms: _309  and  _311
REMARK  132  A    between atoms: _311  and  _312
REMARK  133  A    between atoms: _311  and  _314
REMARK  134  A    between atoms: _314  and  _315
REMARK  135  A    between atoms: _320  and  _321
REMARK  136  A    between atoms: _323  and  _325
REMARK  137  A    between atoms: _325  and  _326
REMARK  138  A    between atoms: _325  and  _328
REMARK  139  A    between atoms: _328  and  _329
REMARK  140  A    between atoms: _332  and  _334
REMARK  141  A    between atoms: _334  and  _335
REMARK  142  A    between atoms: _334  and  _337
REMARK  143  A    between atoms: _340  and  _342
REMARK  144  A    between atoms: _342  and  _343
REMARK  145  A    between atoms: _342  and  _345
REMARK  146  A    between atoms: _345  and  _346
REMARK  147  A    between atoms: _349  and  _351
REMARK  148  A    between atoms: _351  and  _352
REMARK  149  A    between atoms: _351  and  _354
REMARK  150  A    between atoms: _354  and  _355
REMARK  151  A    between atoms: _360  and  _362
REMARK  152  A    between atoms: _362  and  _363
REMARK  153  A    between atoms: _362  and  _365
REMARK  154  A    between atoms: _365  and  _366
REMARK  155  A    between atoms: _369  and  _371
REMARK  156  A    between atoms: _371  and  _372
REMARK  157  A    between atoms: _371  and  _374
REMARK  158  A    between atoms: _374  and  _375
REMARK  159  A    between atoms: _375  and  _376
REMARK  160  A    between atoms: _378  and  _380
REMARK  161  A    between atoms: _380  and  _381
REMARK  162  A    between atoms: _383  and  _385
REMARK  163  A    between atoms: _385  and  _386
REMARK  164  A    between atoms: _389  and  _391
REMARK  165  A    between atoms: _391  and  _392
REMARK  166  A    between atoms: _391  and  _394
REMARK  167  A    between atoms: _394  and  _395
REMARK  168  A    between atoms: _398  and  _400
REMARK  169  A    between atoms: _400  and  _401
REMARK  170  A    between atoms: _400  and  _403
REMARK  171  A    between atoms: _403  and  _404
REMARK  172  A    between atoms: _407  and  _409
REMARK  173  A    between atoms: _409  and  _410
REMARK  174  A    between atoms: _409  and  _412
REMARK  175  A    between atoms: _412  and  _413
REMARK  176  A    between atoms: _418  and  _420
REMARK  177  A    between atoms: _420  and  _421
REMARK  178  A    between atoms: _420  and  _423
REMARK  179  A    between atoms: _423  and  _424
REMARK  180  A    between atoms: _429  and  _431
REMARK  181  A    between atoms: _431  and  _432
REMARK  182  A    between atoms: _431  and  _434
REMARK  183  A    between atoms: _434  and  _435
REMARK  184  A    between atoms: _438  and  _440
REMARK  185  A    between atoms: _440  and  _441
REMARK  186  A    between atoms: _440  and  _443
REMARK  187  A    between atoms: _443  and  _444
REMARK  188  A    between atoms: _450  and  _451
REMARK  189  A    between atoms: _456  and  _458
REMARK  190  A    between atoms: _458  and  _459
REMARK  191  A    between atoms: _458  and  _461
REMARK  192  A    between atoms: _461  and  _462
REMARK  193  A    between atoms: _464  and  _466
REMARK  194  A    between atoms: _466  and  _467
REMARK  195  A    between atoms: _466  and  _469
REMARK  196  A    between atoms: _469  and  _470
REMARK  197  A    between atoms: _475  and  _477
REMARK  198  A    between atoms: _477  and  _478
REMARK  199  A    between atoms: _477  and  _480
REMARK  200  A    between atoms: _480  and  _481
REMARK  201  A    between atoms: _484  and  _486
REMARK  202  A    between atoms: _486  and  _487
REMARK  203  A    between atoms: _490  and  _492
REMARK  204  A    between atoms: _492  and  _493
REMARK  205  A    between atoms: _492  and  _495
REMARK  206  A    between atoms: _498  and  _500
REMARK  207  A    between atoms: _500  and  _501
REMARK  208  A    between atoms: _500  and  _503
REMARK  209  A    between atoms: _503  and  _504
REMARK  210  A    between atoms: _504  and  _505
REMARK  211  A    between atoms: _505  and  _506
REMARK  212  A    between atoms: _506  and  _507
REMARK  213  A    between atoms: _511  and  _513
REMARK  214  A    between atoms: _513  and  _514
REMARK  215  A    between atoms: _513  and  _516
REMARK  216  A    between atoms: _516  and  _517
REMARK  217  A    between atoms: _520  and  _522
REMARK  218  A    between atoms: _522  and  _523
REMARK  219  A    between atoms: _522  and  _525
REMARK  220  A    between atoms: _525  and  _526
REMARK  221  A    between atoms: _529  and  _531
REMARK  222  A    between atoms: _531  and  _532
REMARK  223  A    between atoms: _531  and  _534
REMARK  224  A    between atoms: _534  and  _535
REMARK  225  A    between atoms: _538  and  _540
REMARK  226  A    between atoms: _540  and  _541
REMARK  227  A    between atoms: _540  and  _543
REMARK  228  A    between atoms: _543  and  _544
REMARK  229  A    between atoms: _550  and  _552
REMARK  230  A    between atoms: _552  and  _553
REMARK  231  A    between atoms: _555  and  _557
REMARK  232  A    between atoms: _557  and  _558
REMARK  233  A    between atoms: _557  and  _560
REMARK  234  A    between atoms: _560  and  _561
REMARK                            x       y       z     vdW  Elec       q    Type
REMARK                         _______ _______ _______ _____ _____    ______ ____
ROOT
ATOM      1  O   HOH     1      50.108  29.713  33.102  0.00  0.00    +0.000 OA
ENDROOT
TORSDOF 0
REMARK  Name = ../refined-set-2016/3iph/3iph_pocket.pdb
REMARK  234 active torsions:
REMARK  status: ('A' for Active; 'I' for Inactive)
REMARK    1  A    between atoms: _1  and  _3
REMARK    2  A    between atoms: _3  and  _4
REMARK    3  A    between atoms: _3  and  _6
REMARK    4  A    between atoms: _9  and  _11
REMARK    5  A    between atoms: _11  and  _12
REMARK    6  A    between atoms: _14  and  _16
REMARK    7  A    between atoms: _16  and  _17
REMARK    8  A    between atoms: _16  and  _19
REMARK    9  A    between atoms: _19  and  _20
REMARK   10  A    between atoms: _22  and  _24
REMARK   11  A    between atoms: _24  and  _25
REMARK   12  A    between atoms: _27  and  _29
REMARK   13  A    between atoms: _29  and  _30
REMARK   14  A    between atoms: _33  and  _35
REMARK   15  A    between atoms: _35  and  _36
REMARK   16  A    between atoms: _35  and  _38
REMARK   17  A    between atoms: _38  and  _39
REMARK   18  A    between atoms: _44  and  _45
REMARK   19  A    between atoms: _47  and  _49
REMARK   20  A    between atoms: _49  and  _50
REMARK   21  A    between atoms: _49  and  _52
REMARK   22  A    between atoms: _52  and  _53
REMARK   23  A    between atoms: _55  and  _57
REMARK   24  A    between atoms: _57  and  _58
REMARK   25  A    between atoms: _57  and  _60
REMARK   26  A    between atoms: _63  and  _65
REMARK   27  A    between atoms: _65  and  _66
REMARK   28  A    between atoms: _65  and  _68
REMARK   29  A    between atoms: _70  and  _72
REMARK   30  A    between atoms: _72  and  _73
REMARK   31  A    between atoms: _76  and  _78
REMARK   32  A    between atoms: _78  and  _79
REMARK   33  A    between atoms: _78  and  _81
REMARK   34  A    between atoms: _81  and  _82
REMARK   35  A    between atoms: _82  and  _83
REMARK   36  A    between atoms: _83  and  _84
REMARK   37  A    between atoms: _93  and  _95
REMARK   38  A    between atoms: _95  and  _96
REMARK   39  A    between atoms: _95  and  _98
REMARK   40  A    between atoms: _101  and  _103
REMARK   41  A    between atoms: _103  and  _104
REMARK   42  A    between atoms: _107  and  _109
REMARK   43  A    between atoms: _109  and  _110
REMARK   44  A    between atoms: _109  and  _112
REMARK   45  A    between atoms: _115  and  _117
REMARK   46  A    between atoms: _117  and  _118
REMARK   47  A    between atoms: _117  and  _120
REMARK   48  A    between atoms: _120  and  _121
REMARK   49  A    between atoms: _121  and  _122
REMARK   50  A    between atoms: _122  and  _123
REMARK   51  A    between atoms: _123  and  _124
REMARK   52  A    between atoms: _128  and  _130
REMARK   53  A    between atoms: _130  and  _131
REMARK   54  A    between atoms: _130  and  _133
REMARK   55  A    between atoms: _133  and  _134
REMARK   56  A    between atoms: _134  and  _135
REMARK   57  A    between atoms: _135  and  _136
REMARK   58  A    between atoms: _136  and  _137
REMARK   59  A    between atoms: _141  and  _143
REMARK   60  A    between atoms: _143  and  _144
REMARK   61  A    between atoms: _143  and  _146
REMARK   62  A    between atoms: _146  and  _147
REMARK   63  A    between atoms: _150  and  _152
REMARK   64  A    between atoms: _152  and  _153
REMARK   65  A    between atoms: _152  and  _155
REMARK   66  A    between atoms: _155  and  _156
REMARK   67  A    between atoms: _156  and  _157
REMARK   68  A    between atoms: _157  and  _158
REMARK   69  A    between atoms: _167  and  _169
REMARK   70  A    between atoms: _169  and  _170
REMARK   71  A    between atoms: _169  and  _172
REMARK   72  A    between atoms: _172  and  _173
REMARK   73  A    between atoms: _173  and  _174
REMARK   74  A    between atoms: _174  and  _175
REMARK   75  A    between atoms: _184  and  _186
REMARK   76  A    between atoms: _186  and  _187
REMARK   77  A    between atoms: _186  and  _189
REMARK   78  A    between atoms: _189  and  _190
REMARK   79  A    between atoms: _190  and  _191
REMARK   80  A    between atoms: _194  and  _196
REMARK   81  A    between atoms: _196  and  _197
REMARK   82  A    between atoms: _196  and  _199
REMARK   83  A    between atoms: _199  and  _200
REMARK   84  A    between atoms: _203  and  _205
REMARK   85  A    between atoms: _205  and  _206
REMARK   86  A    between atoms: _205  and  _208
REMARK   87  A    between atoms: _208  and  _209
REMARK   88  A    between atoms: _209  and  _210
REMARK   89  A    between atoms: _210  and  _211
REMARK   90  A    between atoms: _220  and  _222
REMARK   91  A    between atoms: _222  and  _223
REMARK   92  A    between atoms: _222  and  _225
REMARK   93  A    between atoms: _225  and  _226
REMARK   94  A    between atoms: _229  and  _231
REMARK   95  A    between atoms: _231  and  _232
REMARK   96  A    between atoms: _231  and  _234
REMARK   97  A    between atoms: _234  and  _235
REMARK   98  A    between atoms: _238  and  _240
REMARK   99  A    between atoms: _240  and  _241
REMARK  100  A    between atoms: _240  and  _243
REMARK  101  A    between atoms: _243  and  _244
REMARK  102  A    between atoms: _244  and  _245
REMARK  103  A    between atoms: _245  and  _246
REMARK  104  A    between atoms: _246  and  _247
REMARK  105  A    between atoms: _251  and  _253
REMARK  106  A    between atoms: _253  and  _254
REMARK  107  A    between atoms: _253  and  _256
REMARK  108  A    between atoms: _256  and  _257
REMARK  109  A    between atoms: _257  and  _258
REMARK  110  A    between atoms: _260  and  _262
REMARK  111  A    between atoms: _262  and  _263
REMARK  112  A    between atoms: _262  and  _265
REMARK  113  A    between atoms: _268  and  _270
REMARK  114  A    between atoms: _270  and  _271
REMARK  115  A    between atoms: _270  and  _273
REMARK  116  A    between atoms: _273  and  _274
REMARK  117  A    between atoms: _277  and  _279
REMARK  118  A    between atoms: _279  and  _280
REMARK  119  A    between atoms: _282  and  _284
REMARK  120  A    between atoms: _284  and  _285
REMARK  121  A    between atoms: _284  and  _287
REMARK  122  A    between atoms: _287  and  _288
REMARK  123  A    between atoms: _291  and  _293
REMARK  124  A    between atoms: _293  and  _294
REMARK  125  A    between atoms: _293  and  _296
REMARK  126  A    between atoms: _296  and  _297
REMARK  127  A    between atoms: _300  and  _302
REMARK  128  A    between atoms: _302  and  _303
REMARK  129  A    between atoms: _302  and  _305
REMARK  130  A    between atoms: _305  and  _306
REMARK  131  A    between atoms: _309  and  _311
REMARK  132  A    between atoms: _311  and  _312
REMARK  133  A    between atoms: _311  and  _314
REMARK  134  A    between atoms: _314  and  _315
REMARK  135  A    between atoms: _320  and  _321
REMARK  136  A    between atoms: _323  and  _325
REMARK  137  A    between atoms: _325  and  _326
REMARK  138  A    between atoms: _325  and  _328
REMARK  139  A    between atoms: _328  and  _329
REMARK  140  A    between atoms: _332  and  _334
REMARK  141  A    between atoms: _334  and  _335
REMARK  142  A    between atoms: _334  and  _337
REMARK  143  A    between atoms: _340  and  _342
REMARK  144  A    between atoms: _342  and  _343
REMARK  145  A    between atoms: _342  and  _345
REMARK  146  A    between atoms: _345  and  _346
REMARK  147  A    between atoms: _349  and  _351
REMARK  148  A    between atoms: _351  and  _352
REMARK  149  A    between atoms: _351  and  _354
REMARK  150  A    between atoms: _354  and  _355
REMARK  151  A    between atoms: _360  and  _362
REMARK  152  A    between atoms: _362  and  _363
REMARK  153  A    between atoms: _362  and  _365
REMARK  154  A    between atoms: _365  and  _366
REMARK  155  A    between atoms: _369  and  _371
REMARK  156  A    between atoms: _371  and  _372
REMARK  157  A    between atoms: _371  and  _374
REMARK  158  A    between atoms: _374  and  _375
REMARK  159  A    between atoms: _375  and  _376
REMARK  160  A    between atoms: _378  and  _380
REMARK  161  A    between atoms: _380  and  _381
REMARK  162  A    between atoms: _383  and  _385
REMARK  163  A    between atoms: _385  and  _386
REMARK  164  A    between atoms: _389  and  _391
REMARK  165  A    between atoms: _391  and  _392
REMARK  166  A    between atoms: _391  and  _394
REMARK  167  A    between atoms: _394  and  _395
REMARK  168  A    between atoms: _398  and  _400
REMARK  169  A    between atoms: _400  and  _401
REMARK  170  A    between atoms: _400  and  _403
REMARK  171  A    between atoms: _403  and  _404
REMARK  172  A    between atoms: _407  and  _409
REMARK  173  A    between atoms: _409  and  _410
REMARK  174  A    between atoms: _409  and  _412
REMARK  175  A    between atoms: _412  and  _413
REMARK  176  A    between atoms: _418  and  _420
REMARK  177  A    between atoms: _420  and  _421
REMARK  178  A    between atoms: _420  and  _423
REMARK  179  A    between atoms: _423  and  _424
REMARK  180  A    between atoms: _429  and  _431
REMARK  181  A    between atoms: _431  and  _432
REMARK  182  A    between atoms: _431  and  _434
REMARK  183  A    between atoms: _434  and  _435
REMARK  184  A    between atoms: _438  and  _440
REMARK  185  A    between atoms: _440  and  _441
REMARK  186  A    between atoms: _440  and  _443
REMARK  187  A    between atoms: _443  and  _444
REMARK  188  A    between atoms: _450  and  _451
REMARK  189  A    between atoms: _456  and  _458
REMARK  190  A    between atoms: _458  and  _459
REMARK  191  A    between atoms: _458  and  _461
REMARK  192  A    between atoms: _461  and  _462
REMARK  193  A    between atoms: _464  and  _466
REMARK  194  A    between atoms: _466  and  _467
REMARK  195  A    between atoms: _466  and  _469
REMARK  196  A    between atoms: _469  and  _470
REMARK  197  A    between atoms: _475  and  _477
REMARK  198  A    between atoms: _477  and  _478
REMARK  199  A    between atoms: _477  and  _480
REMARK  200  A    between atoms: _480  and  _481
REMARK  201  A    between atoms: _484  and  _486
REMARK  202  A    between atoms: _486  and  _487
REMARK  203  A    between atoms: _490  and  _492
REMARK  204  A    between atoms: _492  and  _493
REMARK  205  A    between atoms: _492  and  _495
REMARK  206  A    between atoms: _498  and  _500
REMARK  207  A    between atoms: _500  and  _501
REMARK  208  A    between atoms: _500  and  _503
REMARK  209  A    between atoms: _503  and  _504
REMARK  210  A    between atoms: _504  and  _505
REMARK  211  A    between atoms: _505  and  _506
REMARK  212  A    between atoms: _506  and  _507
REMARK  213  A    between atoms: _511  and  _513
REMARK  214  A    between atoms: _513  and  _514
REMARK  215  A    between atoms: _513  and  _516
REMARK  216  A    between atoms: _516  and  _517
REMARK  217  A    between atoms: _520  and  _522
REMARK  218  A    between atoms: _522  and  _523
REMARK  219  A    between atoms: _522  and  _525
REMARK  220  A    between atoms: _525  and  _526
REMARK  221  A    between atoms: _529  and  _531
REMARK  222  A    between atoms: _531  and  _532
REMARK  223  A    between atoms: _531  and  _534
REMARK  224  A    between atoms: _534  and  _535
REMARK  225  A    between atoms: _538  and  _540
REMARK  226  A    between atoms: _540  and  _541
REMARK  227  A    between atoms: _540  and  _543
REMARK  228  A    between atoms: _543  and  _544
REMARK  229  A    between atoms: _550  and  _552
REMARK  230  A    between atoms: _552  and  _553
REMARK  231  A    between atoms: _555  and  _557
REMARK  232  A    between atoms: _557  and  _558
REMARK  233  A    between atoms: _557  and  _560
REMARK  234  A    between atoms: _560  and  _561
REMARK                            x       y       z     vdW  Elec       q    Type
REMARK                         _______ _______ _______ _____ _____    ______ ____
ROOT
ATOM      1  O   HOH     1      47.572  30.531  32.307  0.00  0.00    +0.000 OA
ENDROOT
TORSDOF 0
REMARK  Name = ../refined-set-2016/3iph/3iph_pocket.pdb
REMARK  234 active torsions:
REMARK  status: ('A' for Active; 'I' for Inactive)
REMARK    1  A    between atoms: _1  and  _3
REMARK    2  A    between atoms: _3  and  _4
REMARK    3  A    between atoms: _3  and  _6
REMARK    4  A    between atoms: _9  and  _11
REMARK    5  A    between atoms: _11  and  _12
REMARK    6  A    between atoms: _14  and  _16
REMARK    7  A    between atoms: _16  and  _17
REMARK    8  A    between atoms: _16  and  _19
REMARK    9  A    between atoms: _19  and  _20
REMARK   10  A    between atoms: _22  and  _24
REMARK   11  A    between atoms: _24  and  _25
REMARK   12  A    between atoms: _27  and  _29
REMARK   13  A    between atoms: _29  and  _30
REMARK   14  A    between atoms: _33  and  _35
REMARK   15  A    between atoms: _35  and  _36
REMARK   16  A    between atoms: _35  and  _38
REMARK   17  A    between atoms: _38  and  _39
REMARK   18  A    between atoms: _44  and  _45
REMARK   19  A    between atoms: _47  and  _49
REMARK   20  A    between atoms: _49  and  _50
REMARK   21  A    between atoms: _49  and  _52
REMARK   22  A    between atoms: _52  and  _53
REMARK   23  A    between atoms: _55  and  _57
REMARK   24  A    between atoms: _57  and  _58
REMARK   25  A    between atoms: _57  and  _60
REMARK   26  A    between atoms: _63  and  _65
REMARK   27  A    between atoms: _65  and  _66
REMARK   28  A    between atoms: _65  and  _68
REMARK   29  A    between atoms: _70  and  _72
REMARK   30  A    between atoms: _72  and  _73
REMARK   31  A    between atoms: _76  and  _78
REMARK   32  A    between atoms: _78  and  _79
REMARK   33  A    between atoms: _78  and  _81
REMARK   34  A    between atoms: _81  and  _82
REMARK   35  A    between atoms: _82  and  _83
REMARK   36  A    between atoms: _83  and  _84
REMARK   37  A    between atoms: _93  and  _95
REMARK   38  A    between atoms: _95  and  _96
REMARK   39  A    between atoms: _95  and  _98
REMARK   40  A    between atoms: _101  and  _103
REMARK   41  A    between atoms: _103  and  _104
REMARK   42  A    between atoms: _107  and  _109
REMARK   43  A    between atoms: _109  and  _110
REMARK   44  A    between atoms: _109  and  _112
REMARK   45  A    between atoms: _115  and  _117
REMARK   46  A    between atoms: _117  and  _118
REMARK   47  A    between atoms: _117  and  _120
REMARK   48  A    between atoms: _120  and  _121
REMARK   49  A    between atoms: _121  and  _122
REMARK   50  A    between atoms: _122  and  _123
REMARK   51  A    between atoms: _123  and  _124
REMARK   52  A    between atoms: _128  and  _130
REMARK   53  A    between atoms: _130  and  _131
REMARK   54  A    between atoms: _130  and  _133
REMARK   55  A    between atoms: _133  and  _134
REMARK   56  A    between atoms: _134  and  _135
REMARK   57  A    between atoms: _135  and  _136
REMARK   58  A    between atoms: _136  and  _137
REMARK   59  A    between atoms: _141  and  _143
REMARK   60  A    between atoms: _143  and  _144
REMARK   61  A    between atoms: _143  and  _146
REMARK   62  A    between atoms: _146  and  _147
REMARK   63  A    between atoms: _150  and  _152
REMARK   64  A    between atoms: _152  and  _153
REMARK   65  A    between atoms: _152  and  _155
REMARK   66  A    between atoms: _155  and  _156
REMARK   67  A    between atoms: _156  and  _157
REMARK   68  A    between atoms: _157  and  _158
REMARK   69  A    between atoms: _167  and  _169
REMARK   70  A    between atoms: _169  and  _170
REMARK   71  A    between atoms: _169  and  _172
REMARK   72  A    between atoms: _172  and  _173
REMARK   73  A    between atoms: _173  and  _174
REMARK   74  A    between atoms: _174  and  _175
REMARK   75  A    between atoms: _184  and  _186
REMARK   76  A    between atoms: _186  and  _187
REMARK   77  A    between atoms: _186  and  _189
REMARK   78  A    between atoms: _189  and  _190
REMARK   79  A    between atoms: _190  and  _191
REMARK   80  A    between atoms: _194  and  _196
REMARK   81  A    between atoms: _196  and  _197
REMARK   82  A    between atoms: _196  and  _199
REMARK   83  A    between atoms: _199  and  _200
REMARK   84  A    between atoms: _203  and  _205
REMARK   85  A    between atoms: _205  and  _206
REMARK   86  A    between atoms: _205  and  _208
REMARK   87  A    between atoms: _208  and  _209
REMARK   88  A    between atoms: _209  and  _210
REMARK   89  A    between atoms: _210  and  _211
REMARK   90  A    between atoms: _220  and  _222
REMARK   91  A    between atoms: _222  and  _223
REMARK   92  A    between atoms: _222  and  _225
REMARK   93  A    between atoms: _225  and  _226
REMARK   94  A    between atoms: _229  and  _231
REMARK   95  A    between atoms: _231  and  _232
REMARK   96  A    between atoms: _231  and  _234
REMARK   97  A    between atoms: _234  and  _235
REMARK   98  A    between atoms: _238  and  _240
REMARK   99  A    between atoms: _240  and  _241
REMARK  100  A    between atoms: _240  and  _243
REMARK  101  A    between atoms: _243  and  _244
REMARK  102  A    between atoms: _244  and  _245
REMARK  103  A    between atoms: _245  and  _246
REMARK  104  A    between atoms: _246  and  _247
REMARK  105  A    between atoms: _251  and  _253
REMARK  106  A    between atoms: _253  and  _254
REMARK  107  A    between atoms: _253  and  _256
REMARK  108  A    between atoms: _256  and  _257
REMARK  109  A    between atoms: _257  and  _258
REMARK  110  A    between atoms: _260  and  _262
REMARK  111  A    between atoms: _262  and  _263
REMARK  112  A    between atoms: _262  and  _265
REMARK  113  A    between atoms: _268  and  _270
REMARK  114  A    between atoms: _270  and  _271
REMARK  115  A    between atoms: _270  and  _273
REMARK  116  A    between atoms: _273  and  _274
REMARK  117  A    between atoms: _277  and  _279
REMARK  118  A    between atoms: _279  and  _280
REMARK  119  A    between atoms: _282  and  _284
REMARK  120  A    between atoms: _284  and  _285
REMARK  121  A    between atoms: _284  and  _287
REMARK  122  A    between atoms: _287  and  _288
REMARK  123  A    between atoms: _291  and  _293
REMARK  124  A    between atoms: _293  and  _294
REMARK  125  A    between atoms: _293  and  _296
REMARK  126  A    between atoms: _296  and  _297
REMARK  127  A    between atoms: _300  and  _302
REMARK  128  A    between atoms: _302  and  _303
REMARK  129  A    between atoms: _302  and  _305
REMARK  130  A    between atoms: _305  and  _306
REMARK  131  A    between atoms: _309  and  _311
REMARK  132  A    between atoms: _311  and  _312
REMARK  133  A    between atoms: _311  and  _314
REMARK  134  A    between atoms: _314  and  _315
REMARK  135  A    between atoms: _320  and  _321
REMARK  136  A    between atoms: _323  and  _325
REMARK  137  A    between atoms: _325  and  _326
REMARK  138  A    between atoms: _325  and  _328
REMARK  139  A    between atoms: _328  and  _329
REMARK  140  A    between atoms: _332  and  _334
REMARK  141  A    between atoms: _334  and  _335
REMARK  142  A    between atoms: _334  and  _337
REMARK  143  A    between atoms: _340  and  _342
REMARK  144  A    between atoms: _342  and  _343
REMARK  145  A    between atoms: _342  and  _345
REMARK  146  A    between atoms: _345  and  _346
REMARK  147  A    between atoms: _349  and  _351
REMARK  148  A    between atoms: _351  and  _352
REMARK  149  A    between atoms: _351  and  _354
REMARK  150  A    between atoms: _354  and  _355
REMARK  151  A    between atoms: _360  and  _362
REMARK  152  A    between atoms: _362  and  _363
REMARK  153  A    between atoms: _362  and  _365
REMARK  154  A    between atoms: _365  and  _366
REMARK  155  A    between atoms: _369  and  _371
REMARK  156  A    between atoms: _371  and  _372
REMARK  157  A    between atoms: _371  and  _374
REMARK  158  A    between atoms: _374  and  _375
REMARK  159  A    between atoms: _375  and  _376
REMARK  160  A    between atoms: _378  and  _380
REMARK  161  A    between atoms: _380  and  _381
REMARK  162  A    between atoms: _383  and  _385
REMARK  163  A    between atoms: _385  and  _386
REMARK  164  A    between atoms: _389  and  _391
REMARK  165  A    between atoms: _391  and  _392
REMARK  166  A    between atoms: _391  and  _394
REMARK  167  A    between atoms: _394  and  _395
REMARK  168  A    between atoms: _398  and  _400
REMARK  169  A    between atoms: _400  and  _401
REMARK  170  A    between atoms: _400  and  _403
REMARK  171  A    between atoms: _403  and  _404
REMARK  172  A    between atoms: _407  and  _409
REMARK  173  A    between atoms: _409  and  _410
REMARK  174  A    between atoms: _409  and  _412
REMARK  175  A    between atoms: _412  and  _413
REMARK  176  A    between atoms: _418  and  _420
REMARK  177  A    between atoms: _420  and  _421
REMARK  178  A    between atoms: _420  and  _423
REMARK  179  A    between atoms: _423  and  _424
REMARK  180  A    between atoms: _429  and  _431
REMARK  181  A    between atoms: _431  and  _432
REMARK  182  A    between atoms: _431  and  _434
REMARK  183  A    between atoms: _434  and  _435
REMARK  184  A    between atoms: _438  and  _440
REMARK  185  A    between atoms: _440  and  _441
REMARK  186  A    between atoms: _440  and  _443
REMARK  187  A    between atoms: _443  and  _444
REMARK  188  A    between atoms: _450  and  _451
REMARK  189  A    between atoms: _456  and  _458
REMARK  190  A    between atoms: _458  and  _459
REMARK  191  A    between atoms: _458  and  _461
REMARK  192  A    between atoms: _461  and  _462
REMARK  193  A    between atoms: _464  and  _466
REMARK  194  A    between atoms: _466  and  _467
REMARK  195  A    between atoms: _466  and  _469
REMARK  196  A    between atoms: _469  and  _470
REMARK  197  A    between atoms: _475  and  _477
REMARK  198  A    between atoms: _477  and  _478
REMARK  199  A    between atoms: _477  and  _480
REMARK  200  A    between atoms: _480  and  _481
REMARK  201  A    between atoms: _484  and  _486
REMARK  202  A    between atoms: _486  and  _487
REMARK  203  A    between atoms: _490  and  _492
REMARK  204  A    between atoms: _492  and  _493
REMARK  205  A    between atoms: _492  and  _495
REMARK  206  A    between atoms: _498  and  _500
REMARK  207  A    between atoms: _500  and  _501
REMARK  208  A    between atoms: _500  and  _503
REMARK  209  A    between atoms: _503  and  _504
REMARK  210  A    between atoms: _504  and  _505
REMARK  211  A    between atoms: _505  and  _506
REMARK  212  A    between atoms: _506  and  _507
REMARK  213  A    between atoms: _511  and  _513
REMARK  214  A    between atoms: _513  and  _514
REMARK  215  A    between atoms: _513  and  _516
REMARK  216  A    between atoms: _516  and  _517
REMARK  217  A    between atoms: _520  and  _522
REMARK  218  A    between atoms: _522  and  _523
REMARK  219  A    between atoms: _522  and  _525
REMARK  220  A    between atoms: _525  and  _526
REMARK  221  A    between atoms: _529  and  _531
REMARK  222  A    between atoms: _531  and  _532
REMARK  223  A    between atoms: _531  and  _534
REMARK  224  A    between atoms: _534  and  _535
REMARK  225  A    between atoms: _538  and  _540
REMARK  226  A    between atoms: _540  and  _541
REMARK  227  A    between atoms: _540  and  _543
REMARK  228  A    between atoms: _543  and  _544
REMARK  229  A    between atoms: _550  and  _552
REMARK  230  A    between atoms: _552  and  _553
REMARK  231  A    between atoms: _555  and  _557
REMARK  232  A    between atoms: _557  and  _558
REMARK  233  A    between atoms: _557  and  _560
REMARK  234  A    between atoms: _560  and  _561
REMARK                            x       y       z     vdW  Elec       q    Type
REMARK                         _______ _______ _______ _____ _____    ______ ____
ROOT
ATOM      1  O   HOH     1      45.398  28.097  32.509  0.00  0.00    +0.000 OA
ENDROOT
TORSDOF 0
REMARK  Name = ../refined-set-2016/3iph/3iph_pocket.pdb
REMARK  234 active torsions:
REMARK  status: ('A' for Active; 'I' for Inactive)
REMARK    1  A    between atoms: _1  and  _3
REMARK    2  A    between atoms: _3  and  _4
REMARK    3  A    between atoms: _3  and  _6
REMARK    4  A    between atoms: _9  and  _11
REMARK    5  A    between atoms: _11  and  _12
REMARK    6  A    between atoms: _14  and  _16
REMARK    7  A    between atoms: _16  and  _17
REMARK    8  A    between atoms: _16  and  _19
REMARK    9  A    between atoms: _19  and  _20
REMARK   10  A    between atoms: _22  and  _24
REMARK   11  A    between atoms: _24  and  _25
REMARK   12  A    between atoms: _27  and  _29
REMARK   13  A    between atoms: _29  and  _30
REMARK   14  A    between atoms: _33  and  _35
REMARK   15  A    between atoms: _35  and  _36
REMARK   16  A    between atoms: _35  and  _38
REMARK   17  A    between atoms: _38  and  _39
REMARK   18  A    between atoms: _44  and  _45
REMARK   19  A    between atoms: _47  and  _49
REMARK   20  A    between atoms: _49  and  _50
REMARK   21  A    between atoms: _49  and  _52
REMARK   22  A    between atoms: _52  and  _53
REMARK   23  A    between atoms: _55  and  _57
REMARK   24  A    between atoms: _57  and  _58
REMARK   25  A    between atoms: _57  and  _60
REMARK   26  A    between atoms: _63  and  _65
REMARK   27  A    between atoms: _65  and  _66
REMARK   28  A    between atoms: _65  and  _68
REMARK   29  A    between atoms: _70  and  _72
REMARK   30  A    between atoms: _72  and  _73
REMARK   31  A    between atoms: _76  and  _78
REMARK   32  A    between atoms: _78  and  _79
REMARK   33  A    between atoms: _78  and  _81
REMARK   34  A    between atoms: _81  and  _82
REMARK   35  A    between atoms: _82  and  _83
REMARK   36  A    between atoms: _83  and  _84
REMARK   37  A    between atoms: _93  and  _95
REMARK   38  A    between atoms: _95  and  _96
REMARK   39  A    between atoms: _95  and  _98
REMARK   40  A    between atoms: _101  and  _103
REMARK   41  A    between atoms: _103  and  _104
REMARK   42  A    between atoms: _107  and  _109
REMARK   43  A    between atoms: _109  and  _110
REMARK   44  A    between atoms: _109  and  _112
REMARK   45  A    between atoms: _115  and  _117
REMARK   46  A    between atoms: _117  and  _118
REMARK   47  A    between atoms: _117  and  _120
REMARK   48  A    between atoms: _120  and  _121
REMARK   49  A    between atoms: _121  and  _122
REMARK   50  A    between atoms: _122  and  _123
REMARK   51  A    between atoms: _123  and  _124
REMARK   52  A    between atoms: _128  and  _130
REMARK   53  A    between atoms: _130  and  _131
REMARK   54  A    between atoms: _130  and  _133
REMARK   55  A    between atoms: _133  and  _134
REMARK   56  A    between atoms: _134  and  _135
REMARK   57  A    between atoms: _135  and  _136
REMARK   58  A    between atoms: _136  and  _137
REMARK   59  A    between atoms: _141  and  _143
REMARK   60  A    between atoms: _143  and  _144
REMARK   61  A    between atoms: _143  and  _146
REMARK   62  A    between atoms: _146  and  _147
REMARK   63  A    between atoms: _150  and  _152
REMARK   64  A    between atoms: _152  and  _153
REMARK   65  A    between atoms: _152  and  _155
REMARK   66  A    between atoms: _155  and  _156
REMARK   67  A    between atoms: _156  and  _157
REMARK   68  A    between atoms: _157  and  _158
REMARK   69  A    between atoms: _167  and  _169
REMARK   70  A    between atoms: _169  and  _170
REMARK   71  A    between atoms: _169  and  _172
REMARK   72  A    between atoms: _172  and  _173
REMARK   73  A    between atoms: _173  and  _174
REMARK   74  A    between atoms: _174  and  _175
REMARK   75  A    between atoms: _184  and  _186
REMARK   76  A    between atoms: _186  and  _187
REMARK   77  A    between atoms: _186  and  _189
REMARK   78  A    between atoms: _189  and  _190
REMARK   79  A    between atoms: _190  and  _191
REMARK   80  A    between atoms: _194  and  _196
REMARK   81  A    between atoms: _196  and  _197
REMARK   82  A    between atoms: _196  and  _199
REMARK   83  A    between atoms: _199  and  _200
REMARK   84  A    between atoms: _203  and  _205
REMARK   85  A    between atoms: _205  and  _206
REMARK   86  A    between atoms: _205  and  _208
REMARK   87  A    between atoms: _208  and  _209
REMARK   88  A    between atoms: _209  and  _210
REMARK   89  A    between atoms: _210  and  _211
REMARK   90  A    between atoms: _220  and  _222
REMARK   91  A    between atoms: _222  and  _223
REMARK   92  A    between atoms: _222  and  _225
REMARK   93  A    between atoms: _225  and  _226
REMARK   94  A    between atoms: _229  and  _231
REMARK   95  A    between atoms: _231  and  _232
REMARK   96  A    between atoms: _231  and  _234
REMARK   97  A    between atoms: _234  and  _235
REMARK   98  A    between atoms: _238  and  _240
REMARK   99  A    between atoms: _240  and  _241
REMARK  100  A    between atoms: _240  and  _243
REMARK  101  A    between atoms: _243  and  _244
REMARK  102  A    between atoms: _244  and  _245
REMARK  103  A    between atoms: _245  and  _246
REMARK  104  A    between atoms: _246  and  _247
REMARK  105  A    between atoms: _251  and  _253
REMARK  106  A    between atoms: _253  and  _254
REMARK  107  A    between atoms: _253  and  _256
REMARK  108  A    between atoms: _256  and  _257
REMARK  109  A    between atoms: _257  and  _258
REMARK  110  A    between atoms: _260  and  _262
REMARK  111  A    between atoms: _262  and  _263
REMARK  112  A    between atoms: _262  and  _265
REMARK  113  A    between atoms: _268  and  _270
REMARK  114  A    between atoms: _270  and  _271
REMARK  115  A    between atoms: _270  and  _273
REMARK  116  A    between atoms: _273  and  _274
REMARK  117  A    between atoms: _277  and  _279
REMARK  118  A    between atoms: _279  and  _280
REMARK  119  A    between atoms: _282  and  _284
REMARK  120  A    between atoms: _284  and  _285
REMARK  121  A    between atoms: _284  and  _287
REMARK  122  A    between atoms: _287  and  _288
REMARK  123  A    between atoms: _291  and  _293
REMARK  124  A    between atoms: _293  and  _294
REMARK  125  A    between atoms: _293  and  _296
REMARK  126  A    between atoms: _296  and  _297
REMARK  127  A    between atoms: _300  and  _302
REMARK  128  A    between atoms: _302  and  _303
REMARK  129  A    between atoms: _302  and  _305
REMARK  130  A    between atoms: _305  and  _306
REMARK  131  A    between atoms: _309  and  _311
REMARK  132  A    between atoms: _311  and  _312
REMARK  133  A    between atoms: _311  and  _314
REMARK  134  A    between atoms: _314  and  _315
REMARK  135  A    between atoms: _320  and  _321
REMARK  136  A    between atoms: _323  and  _325
REMARK  137  A    between atoms: _325  and  _326
REMARK  138  A    between atoms: _325  and  _328
REMARK  139  A    between atoms: _328  and  _329
REMARK  140  A    between atoms: _332  and  _334
REMARK  141  A    between atoms: _334  and  _335
REMARK  142  A    between atoms: _334  and  _337
REMARK  143  A    between atoms: _340  and  _342
REMARK  144  A    between atoms: _342  and  _343
REMARK  145  A    between atoms: _342  and  _345
REMARK  146  A    between atoms: _345  and  _346
REMARK  147  A    between atoms: _349  and  _351
REMARK  148  A    between atoms: _351  and  _352
REMARK  149  A    between atoms: _351  and  _354
REMARK  150  A    between atoms: _354  and  _355
REMARK  151  A    between atoms: _360  and  _362
REMARK  152  A    between atoms: _362  and  _363
REMARK  153  A    between atoms: _362  and  _365
REMARK  154  A    between atoms: _365  and  _366
REMARK  155  A    between atoms: _369  and  _371
REMARK  156  A    between atoms: _371  and  _372
REMARK  157  A    between atoms: _371  and  _374
REMARK  158  A    between atoms: _374  and  _375
REMARK  159  A    between atoms: _375  and  _376
REMARK  160  A    between atoms: _378  and  _380
REMARK  161  A    between atoms: _380  and  _381
REMARK  162  A    between atoms: _383  and  _385
REMARK  163  A    between atoms: _385  and  _386
REMARK  164  A    between atoms: _389  and  _391
REMARK  165  A    between atoms: _391  and  _392
REMARK  166  A    between atoms: _391  and  _394
REMARK  167  A    between atoms: _394  and  _395
REMARK  168  A    between atoms: _398  and  _400
REMARK  169  A    between atoms: _400  and  _401
REMARK  170  A    between atoms: _400  and  _403
REMARK  171  A    between atoms: _403  and  _404
REMARK  172  A    between atoms: _407  and  _409
REMARK  173  A    between atoms: _409  and  _410
REMARK  174  A    between atoms: _409  and  _412
REMARK  175  A    between atoms: _412  and  _413
REMARK  176  A    between atoms: _418  and  _420
REMARK  177  A    between atoms: _420  and  _421
REMARK  178  A    between atoms: _420  and  _423
REMARK  179  A    between atoms: _423  and  _424
REMARK  180  A    between atoms: _429  and  _431
REMARK  181  A    between atoms: _431  and  _432
REMARK  182  A    between atoms: _431  and  _434
REMARK  183  A    between atoms: _434  and  _435
REMARK  184  A    between atoms: _438  and  _440
REMARK  185  A    between atoms: _440  and  _441
REMARK  186  A    between atoms: _440  and  _443
REMARK  187  A    between atoms: _443  and  _444
REMARK  188  A    between atoms: _450  and  _451
REMARK  189  A    between atoms: _456  and  _458
REMARK  190  A    between atoms: _458  and  _459
REMARK  191  A    between atoms: _458  and  _461
REMARK  192  A    between atoms: _461  and  _462
REMARK  193  A    between atoms: _464  and  _466
REMARK  194  A    between atoms: _466  and  _467
REMARK  195  A    between atoms: _466  and  _469
REMARK  196  A    between atoms: _469  and  _470
REMARK  197  A    between atoms: _475  and  _477
REMARK  198  A    between atoms: _477  and  _478
REMARK  199  A    between atoms: _477  and  _480
REMARK  200  A    between atoms: _480  and  _481
REMARK  201  A    between atoms: _484  and  _486
REMARK  202  A    between atoms: _486  and  _487
REMARK  203  A    between atoms: _490  and  _492
REMARK  204  A    between atoms: _492  and  _493
REMARK  205  A    between atoms: _492  and  _495
REMARK  206  A    between atoms: _498  and  _500
REMARK  207  A    between atoms: _500  and  _501
REMARK  208  A    between atoms: _500  and  _503
REMARK  209  A    between atoms: _503  and  _504
REMARK  210  A    between atoms: _504  and  _505
REMARK  211  A    between atoms: _505  and  _506
REMARK  212  A    between atoms: _506  and  _507
REMARK  213  A    between atoms: _511  and  _513
REMARK  214  A    between atoms: _513  and  _514
REMARK  215  A    between atoms: _513  and  _516
REMARK  216  A    between atoms: _516  and  _517
REMARK  217  A    between atoms: _520  and  _522
REMARK  218  A    between atoms: _522  and  _523
REMARK  219  A    between atoms: _522  and  _525
REMARK  220  A    between atoms: _525  and  _526
REMARK  221  A    between atoms: _529  and  _531
REMARK  222  A    between atoms: _531  and  _532
REMARK  223  A    between atoms: _531  and  _534
REMARK  224  A    between atoms: _534  and  _535
REMARK  225  A    between atoms: _538  and  _540
REMARK  226  A    between atoms: _540  and  _541
REMARK  227  A    between atoms: _540  and  _543
REMARK  228  A    between atoms: _543  and  _544
REMARK  229  A    between atoms: _550  and  _552
REMARK  230  A    between atoms: _552  and  _553
REMARK  231  A    between atoms: _555  and  _557
REMARK  232  A    between atoms: _557  and  _558
REMARK  233  A    between atoms: _557  and  _560
REMARK  234  A    between atoms: _560  and  _561
REMARK                            x       y       z     vdW  Elec       q    Type
REMARK                         _______ _______ _______ _____ _____    ______ ____
ROOT
ATOM      1  O   HOH     1      53.928  28.384  33.653  0.00  0.00    +0.000 OA
ENDROOT
TORSDOF 0
REMARK  Name = ../refined-set-2016/3iph/3iph_pocket.pdb
REMARK  234 active torsions:
REMARK  status: ('A' for Active; 'I' for Inactive)
REMARK    1  A    between atoms: _1  and  _3
REMARK    2  A    between atoms: _3  and  _4
REMARK    3  A    between atoms: _3  and  _6
REMARK    4  A    between atoms: _9  and  _11
REMARK    5  A    between atoms: _11  and  _12
REMARK    6  A    between atoms: _14  and  _16
REMARK    7  A    between atoms: _16  and  _17
REMARK    8  A    between atoms: _16  and  _19
REMARK    9  A    between atoms: _19  and  _20
REMARK   10  A    between atoms: _22  and  _24
REMARK   11  A    between atoms: _24  and  _25
REMARK   12  A    between atoms: _27  and  _29
REMARK   13  A    between atoms: _29  and  _30
REMARK   14  A    between atoms: _33  and  _35
REMARK   15  A    between atoms: _35  and  _36
REMARK   16  A    between atoms: _35  and  _38
REMARK   17  A    between atoms: _38  and  _39
REMARK   18  A    between atoms: _44  and  _45
REMARK   19  A    between atoms: _47  and  _49
REMARK   20  A    between atoms: _49  and  _50
REMARK   21  A    between atoms: _49  and  _52
REMARK   22  A    between atoms: _52  and  _53
REMARK   23  A    between atoms: _55  and  _57
REMARK   24  A    between atoms: _57  and  _58
REMARK   25  A    between atoms: _57  and  _60
REMARK   26  A    between atoms: _63  and  _65
REMARK   27  A    between atoms: _65  and  _66
REMARK   28  A    between atoms: _65  and  _68
REMARK   29  A    between atoms: _70  and  _72
REMARK   30  A    between atoms: _72  and  _73
REMARK   31  A    between atoms: _76  and  _78
REMARK   32  A    between atoms: _78  and  _79
REMARK   33  A    between atoms: _78  and  _81
REMARK   34  A    between atoms: _81  and  _82
REMARK   35  A    between atoms: _82  and  _83
REMARK   36  A    between atoms: _83  and  _84
REMARK   37  A    between atoms: _93  and  _95
REMARK   38  A    between atoms: _95  and  _96
REMARK   39  A    between atoms: _95  and  _98
REMARK   40  A    between atoms: _101  and  _103
REMARK   41  A    between atoms: _103  and  _104
REMARK   42  A    between atoms: _107  and  _109
REMARK   43  A    between atoms: _109  and  _110
REMARK   44  A    between atoms: _109  and  _112
REMARK   45  A    between atoms: _115  and  _117
REMARK   46  A    between atoms: _117  and  _118
REMARK   47  A    between atoms: _117  and  _120
REMARK   48  A    between atoms: _120  and  _121
REMARK   49  A    between atoms: _121  and  _122
REMARK   50  A    between atoms: _122  and  _123
REMARK   51  A    between atoms: _123  and  _124
REMARK   52  A    between atoms: _128  and  _130
REMARK   53  A    between atoms: _130  and  _131
REMARK   54  A    between atoms: _130  and  _133
REMARK   55  A    between atoms: _133  and  _134
REMARK   56  A    between atoms: _134  and  _135
REMARK   57  A    between atoms: _135  and  _136
REMARK   58  A    between atoms: _136  and  _137
REMARK   59  A    between atoms: _141  and  _143
REMARK   60  A    between atoms: _143  and  _144
REMARK   61  A    between atoms: _143  and  _146
REMARK   62  A    between atoms: _146  and  _147
REMARK   63  A    between atoms: _150  and  _152
REMARK   64  A    between atoms: _152  and  _153
REMARK   65  A    between atoms: _152  and  _155
REMARK   66  A    between atoms: _155  and  _156
REMARK   67  A    between atoms: _156  and  _157
REMARK   68  A    between atoms: _157  and  _158
REMARK   69  A    between atoms: _167  and  _169
REMARK   70  A    between atoms: _169  and  _170
REMARK   71  A    between atoms: _169  and  _172
REMARK   72  A    between atoms: _172  and  _173
REMARK   73  A    between atoms: _173  and  _174
REMARK   74  A    between atoms: _174  and  _175
REMARK   75  A    between atoms: _184  and  _186
REMARK   76  A    between atoms: _186  and  _187
REMARK   77  A    between atoms: _186  and  _189
REMARK   78  A    between atoms: _189  and  _190
REMARK   79  A    between atoms: _190  and  _191
REMARK   80  A    between atoms: _194  and  _196
REMARK   81  A    between atoms: _196  and  _197
REMARK   82  A    between atoms: _196  and  _199
REMARK   83  A    between atoms: _199  and  _200
REMARK   84  A    between atoms: _203  and  _205
REMARK   85  A    between atoms: _205  and  _206
REMARK   86  A    between atoms: _205  and  _208
REMARK   87  A    between atoms: _208  and  _209
REMARK   88  A    between atoms: _209  and  _210
REMARK   89  A    between atoms: _210  and  _211
REMARK   90  A    between atoms: _220  and  _222
REMARK   91  A    between atoms: _222  and  _223
REMARK   92  A    between atoms: _222  and  _225
REMARK   93  A    between atoms: _225  and  _226
REMARK   94  A    between atoms: _229  and  _231
REMARK   95  A    between atoms: _231  and  _232
REMARK   96  A    between atoms: _231  and  _234
REMARK   97  A    between atoms: _234  and  _235
REMARK   98  A    between atoms: _238  and  _240
REMARK   99  A    between atoms: _240  and  _241
REMARK  100  A    between atoms: _240  and  _243
REMARK  101  A    between atoms: _243  and  _244
REMARK  102  A    between atoms: _244  and  _245
REMARK  103  A    between atoms: _245  and  _246
REMARK  104  A    between atoms: _246  and  _247
REMARK  105  A    between atoms: _251  and  _253
REMARK  106  A    between atoms: _253  and  _254
REMARK  107  A    between atoms: _253  and  _256
REMARK  108  A    between atoms: _256  and  _257
REMARK  109  A    between atoms: _257  and  _258
REMARK  110  A    between atoms: _260  and  _262
REMARK  111  A    between atoms: _262  and  _263
REMARK  112  A    between atoms: _262  and  _265
REMARK  113  A    between atoms: _268  and  _270
REMARK  114  A    between atoms: _270  and  _271
REMARK  115  A    between atoms: _270  and  _273
REMARK  116  A    between atoms: _273  and  _274
REMARK  117  A    between atoms: _277  and  _279
REMARK  118  A    between atoms: _279  and  _280
REMARK  119  A    between atoms: _282  and  _284
REMARK  120  A    between atoms: _284  and  _285
REMARK  121  A    between atoms: _284  and  _287
REMARK  122  A    between atoms: _287  and  _288
REMARK  123  A    between atoms: _291  and  _293
REMARK  124  A    between atoms: _293  and  _294
REMARK  125  A    between atoms: _293  and  _296
REMARK  126  A    between atoms: _296  and  _297
REMARK  127  A    between atoms: _300  and  _302
REMARK  128  A    between atoms: _302  and  _303
REMARK  129  A    between atoms: _302  and  _305
REMARK  130  A    between atoms: _305  and  _306
REMARK  131  A    between atoms: _309  and  _311
REMARK  132  A    between atoms: _311  and  _312
REMARK  133  A    between atoms: _311  and  _314
REMARK  134  A    between atoms: _314  and  _315
REMARK  135  A    between atoms: _320  and  _321
REMARK  136  A    between atoms: _323  and  _325
REMARK  137  A    between atoms: _325  and  _326
REMARK  138  A    between atoms: _325  and  _328
REMARK  139  A    between atoms: _328  and  _329
REMARK  140  A    between atoms: _332  and  _334
REMARK  141  A    between atoms: _334  and  _335
REMARK  142  A    between atoms: _334  and  _337
REMARK  143  A    between atoms: _340  and  _342
REMARK  144  A    between atoms: _342  and  _343
REMARK  145  A    between atoms: _342  and  _345
REMARK  146  A    between atoms: _345  and  _346
REMARK  147  A    between atoms: _349  and  _351
REMARK  148  A    between atoms: _351  and  _352
REMARK  149  A    between atoms: _351  and  _354
REMARK  150  A    between atoms: _354  and  _355
REMARK  151  A    between atoms: _360  and  _362
REMARK  152  A    between atoms: _362  and  _363
REMARK  153  A    between atoms: _362  and  _365
REMARK  154  A    between atoms: _365  and  _366
REMARK  155  A    between atoms: _369  and  _371
REMARK  156  A    between atoms: _371  and  _372
REMARK  157  A    between atoms: _371  and  _374
REMARK  158  A    between atoms: _374  and  _375
REMARK  159  A    between atoms: _375  and  _376
REMARK  160  A    between atoms: _378  and  _380
REMARK  161  A    between atoms: _380  and  _381
REMARK  162  A    between atoms: _383  and  _385
REMARK  163  A    between atoms: _385  and  _386
REMARK  164  A    between atoms: _389  and  _391
REMARK  165  A    between atoms: _391  and  _392
REMARK  166  A    between atoms: _391  and  _394
REMARK  167  A    between atoms: _394  and  _395
REMARK  168  A    between atoms: _398  and  _400
REMARK  169  A    between atoms: _400  and  _401
REMARK  170  A    between atoms: _400  and  _403
REMARK  171  A    between atoms: _403  and  _404
REMARK  172  A    between atoms: _407  and  _409
REMARK  173  A    between atoms: _409  and  _410
REMARK  174  A    between atoms: _409  and  _412
REMARK  175  A    between atoms: _412  and  _413
REMARK  176  A    between atoms: _418  and  _420
REMARK  177  A    between atoms: _420  and  _421
REMARK  178  A    between atoms: _420  and  _423
REMARK  179  A    between atoms: _423  and  _424
REMARK  180  A    between atoms: _429  and  _431
REMARK  181  A    between atoms: _431  and  _432
REMARK  182  A    between atoms: _431  and  _434
REMARK  183  A    between atoms: _434  and  _435
REMARK  184  A    between atoms: _438  and  _440
REMARK  185  A    between atoms: _440  and  _441
REMARK  186  A    between atoms: _440  and  _443
REMARK  187  A    between atoms: _443  and  _444
REMARK  188  A    between atoms: _450  and  _451
REMARK  189  A    between atoms: _456  and  _458
REMARK  190  A    between atoms: _458  and  _459
REMARK  191  A    between atoms: _458  and  _461
REMARK  192  A    between atoms: _461  and  _462
REMARK  193  A    between atoms: _464  and  _466
REMARK  194  A    between atoms: _466  and  _467
REMARK  195  A    between atoms: _466  and  _469
REMARK  196  A    between atoms: _469  and  _470
REMARK  197  A    between atoms: _475  and  _477
REMARK  198  A    between atoms: _477  and  _478
REMARK  199  A    between atoms: _477  and  _480
REMARK  200  A    between atoms: _480  and  _481
REMARK  201  A    between atoms: _484  and  _486
REMARK  202  A    between atoms: _486  and  _487
REMARK  203  A    between atoms: _490  and  _492
REMARK  204  A    between atoms: _492  and  _493
REMARK  205  A    between atoms: _492  and  _495
REMARK  206  A    between atoms: _498  and  _500
REMARK  207  A    between atoms: _500  and  _501
REMARK  208  A    between atoms: _500  and  _503
REMARK  209  A    between atoms: _503  and  _504
REMARK  210  A    between atoms: _504  and  _505
REMARK  211  A    between atoms: _505  and  _506
REMARK  212  A    between atoms: _506  and  _507
REMARK  213  A    between atoms: _511  and  _513
REMARK  214  A    between atoms: _513  and  _514
REMARK  215  A    between atoms: _513  and  _516
REMARK  216  A    between atoms: _516  and  _517
REMARK  217  A    between atoms: _520  and  _522
REMARK  218  A    between atoms: _522  and  _523
REMARK  219  A    between atoms: _522  and  _525
REMARK  220  A    between atoms: _525  and  _526
REMARK  221  A    between atoms: _529  and  _531
REMARK  222  A    between atoms: _531  and  _532
REMARK  223  A    between atoms: _531  and  _534
REMARK  224  A    between atoms: _534  and  _535
REMARK  225  A    between atoms: _538  and  _540
REMARK  226  A    between atoms: _540  and  _541
REMARK  227  A    between atoms: _540  and  _543
REMARK  228  A    between atoms: _543  and  _544
REMARK  229  A    between atoms: _550  and  _552
REMARK  230  A    between atoms: _552  and  _553
REMARK  231  A    between atoms: _555  and  _557
REMARK  232  A    between atoms: _557  and  _558
REMARK  233  A    between atoms: _557  and  _560
REMARK  234  A    between atoms: _560  and  _561
REMARK                            x       y       z     vdW  Elec       q    Type
REMARK                         _______ _______ _______ _____ _____    ______ ____
ROOT
ATOM      1  O   HOH     1      43.499  28.945  31.021  0.00  0.00    +0.000 OA
ENDROOT
TORSDOF 0
REMARK  Name = ../refined-set-2016/3iph/3iph_pocket.pdb
REMARK  234 active torsions:
REMARK  status: ('A' for Active; 'I' for Inactive)
REMARK    1  A    between atoms: _1  and  _3
REMARK    2  A    between atoms: _3  and  _4
REMARK    3  A    between atoms: _3  and  _6
REMARK    4  A    between atoms: _9  and  _11
REMARK    5  A    between atoms: _11  and  _12
REMARK    6  A    between atoms: _14  and  _16
REMARK    7  A    between atoms: _16  and  _17
REMARK    8  A    between atoms: _16  and  _19
REMARK    9  A    between atoms: _19  and  _20
REMARK   10  A    between atoms: _22  and  _24
REMARK   11  A    between atoms: _24  and  _25
REMARK   12  A    between atoms: _27  and  _29
REMARK   13  A    between atoms: _29  and  _30
REMARK   14  A    between atoms: _33  and  _35
REMARK   15  A    between atoms: _35  and  _36
REMARK   16  A    between atoms: _35  and  _38
REMARK   17  A    between atoms: _38  and  _39
REMARK   18  A    between atoms: _44  and  _45
REMARK   19  A    between atoms: _47  and  _49
REMARK   20  A    between atoms: _49  and  _50
REMARK   21  A    between atoms: _49  and  _52
REMARK   22  A    between atoms: _52  and  _53
REMARK   23  A    between atoms: _55  and  _57
REMARK   24  A    between atoms: _57  and  _58
REMARK   25  A    between atoms: _57  and  _60
REMARK   26  A    between atoms: _63  and  _65
REMARK   27  A    between atoms: _65  and  _66
REMARK   28  A    between atoms: _65  and  _68
REMARK   29  A    between atoms: _70  and  _72
REMARK   30  A    between atoms: _72  and  _73
REMARK   31  A    between atoms: _76  and  _78
REMARK   32  A    between atoms: _78  and  _79
REMARK   33  A    between atoms: _78  and  _81
REMARK   34  A    between atoms: _81  and  _82
REMARK   35  A    between atoms: _82  and  _83
REMARK   36  A    between atoms: _83  and  _84
REMARK   37  A    between atoms: _93  and  _95
REMARK   38  A    between atoms: _95  and  _96
REMARK   39  A    between atoms: _95  and  _98
REMARK   40  A    between atoms: _101  and  _103
REMARK   41  A    between atoms: _103  and  _104
REMARK   42  A    between atoms: _107  and  _109
REMARK   43  A    between atoms: _109  and  _110
REMARK   44  A    between atoms: _109  and  _112
REMARK   45  A    between atoms: _115  and  _117
REMARK   46  A    between atoms: _117  and  _118
REMARK   47  A    between atoms: _117  and  _120
REMARK   48  A    between atoms: _120  and  _121
REMARK   49  A    between atoms: _121  and  _122
REMARK   50  A    between atoms: _122  and  _123
REMARK   51  A    between atoms: _123  and  _124
REMARK   52  A    between atoms: _128  and  _130
REMARK   53  A    between atoms: _130  and  _131
REMARK   54  A    between atoms: _130  and  _133
REMARK   55  A    between atoms: _133  and  _134
REMARK   56  A    between atoms: _134  and  _135
REMARK   57  A    between atoms: _135  and  _136
REMARK   58  A    between atoms: _136  and  _137
REMARK   59  A    between atoms: _141  and  _143
REMARK   60  A    between atoms: _143  and  _144
REMARK   61  A    between atoms: _143  and  _146
REMARK   62  A    between atoms: _146  and  _147
REMARK   63  A    between atoms: _150  and  _152
REMARK   64  A    between atoms: _152  and  _153
REMARK   65  A    between atoms: _152  and  _155
REMARK   66  A    between atoms: _155  and  _156
REMARK   67  A    between atoms: _156  and  _157
REMARK   68  A    between atoms: _157  and  _158
REMARK   69  A    between atoms: _167  and  _169
REMARK   70  A    between atoms: _169  and  _170
REMARK   71  A    between atoms: _169  and  _172
REMARK   72  A    between atoms: _172  and  _173
REMARK   73  A    between atoms: _173  and  _174
REMARK   74  A    between atoms: _174  and  _175
REMARK   75  A    between atoms: _184  and  _186
REMARK   76  A    between atoms: _186  and  _187
REMARK   77  A    between atoms: _186  and  _189
REMARK   78  A    between atoms: _189  and  _190
REMARK   79  A    between atoms: _190  and  _191
REMARK   80  A    between atoms: _194  and  _196
REMARK   81  A    between atoms: _196  and  _197
REMARK   82  A    between atoms: _196  and  _199
REMARK   83  A    between atoms: _199  and  _200
REMARK   84  A    between atoms: _203  and  _205
REMARK   85  A    between atoms: _205  and  _206
REMARK   86  A    between atoms: _205  and  _208
REMARK   87  A    between atoms: _208  and  _209
REMARK   88  A    between atoms: _209  and  _210
REMARK   89  A    between atoms: _210  and  _211
REMARK   90  A    between atoms: _220  and  _222
REMARK   91  A    between atoms: _222  and  _223
REMARK   92  A    between atoms: _222  and  _225
REMARK   93  A    between atoms: _225  and  _226
REMARK   94  A    between atoms: _229  and  _231
REMARK   95  A    between atoms: _231  and  _232
REMARK   96  A    between atoms: _231  and  _234
REMARK   97  A    between atoms: _234  and  _235
REMARK   98  A    between atoms: _238  and  _240
REMARK   99  A    between atoms: _240  and  _241
REMARK  100  A    between atoms: _240  and  _243
REMARK  101  A    between atoms: _243  and  _244
REMARK  102  A    between atoms: _244  and  _245
REMARK  103  A    between atoms: _245  and  _246
REMARK  104  A    between atoms: _246  and  _247
REMARK  105  A    between atoms: _251  and  _253
REMARK  106  A    between atoms: _253  and  _254
REMARK  107  A    between atoms: _253  and  _256
REMARK  108  A    between atoms: _256  and  _257
REMARK  109  A    between atoms: _257  and  _258
REMARK  110  A    between atoms: _260  and  _262
REMARK  111  A    between atoms: _262  and  _263
REMARK  112  A    between atoms: _262  and  _265
REMARK  113  A    between atoms: _268  and  _270
REMARK  114  A    between atoms: _270  and  _271
REMARK  115  A    between atoms: _270  and  _273
REMARK  116  A    between atoms: _273  and  _274
REMARK  117  A    between atoms: _277  and  _279
REMARK  118  A    between atoms: _279  and  _280
REMARK  119  A    between atoms: _282  and  _284
REMARK  120  A    between atoms: _284  and  _285
REMARK  121  A    between atoms: _284  and  _287
REMARK  122  A    between atoms: _287  and  _288
REMARK  123  A    between atoms: _291  and  _293
REMARK  124  A    between atoms: _293  and  _294
REMARK  125  A    between atoms: _293  and  _296
REMARK  126  A    between atoms: _296  and  _297
REMARK  127  A    between atoms: _300  and  _302
REMARK  128  A    between atoms: _302  and  _303
REMARK  129  A    between atoms: _302  and  _305
REMARK  130  A    between atoms: _305  and  _306
REMARK  131  A    between atoms: _309  and  _311
REMARK  132  A    between atoms: _311  and  _312
REMARK  133  A    between atoms: _311  and  _314
REMARK  134  A    between atoms: _314  and  _315
REMARK  135  A    between atoms: _320  and  _321
REMARK  136  A    between atoms: _323  and  _325
REMARK  137  A    between atoms: _325  and  _326
REMARK  138  A    between atoms: _325  and  _328
REMARK  139  A    between atoms: _328  and  _329
REMARK  140  A    between atoms: _332  and  _334
REMARK  141  A    between atoms: _334  and  _335
REMARK  142  A    between atoms: _334  and  _337
REMARK  143  A    between atoms: _340  and  _342
REMARK  144  A    between atoms: _342  and  _343
REMARK  145  A    between atoms: _342  and  _345
REMARK  146  A    between atoms: _345  and  _346
REMARK  147  A    between atoms: _349  and  _351
REMARK  148  A    between atoms: _351  and  _352
REMARK  149  A    between atoms: _351  and  _354
REMARK  150  A    between atoms: _354  and  _355
REMARK  151  A    between atoms: _360  and  _362
REMARK  152  A    between atoms: _362  and  _363
REMARK  153  A    between atoms: _362  and  _365
REMARK  154  A    between atoms: _365  and  _366
REMARK  155  A    between atoms: _369  and  _371
REMARK  156  A    between atoms: _371  and  _372
REMARK  157  A    between atoms: _371  and  _374
REMARK  158  A    between atoms: _374  and  _375
REMARK  159  A    between atoms: _375  and  _376
REMARK  160  A    between atoms: _378  and  _380
REMARK  161  A    between atoms: _380  and  _381
REMARK  162  A    between atoms: _383  and  _385
REMARK  163  A    between atoms: _385  and  _386
REMARK  164  A    between atoms: _389  and  _391
REMARK  165  A    between atoms: _391  and  _392
REMARK  166  A    between atoms: _391  and  _394
REMARK  167  A    between atoms: _394  and  _395
REMARK  168  A    between atoms: _398  and  _400
REMARK  169  A    between atoms: _400  and  _401
REMARK  170  A    between atoms: _400  and  _403
REMARK  171  A    between atoms: _403  and  _404
REMARK  172  A    between atoms: _407  and  _409
REMARK  173  A    between atoms: _409  and  _410
REMARK  174  A    between atoms: _409  and  _412
REMARK  175  A    between atoms: _412  and  _413
REMARK  176  A    between atoms: _418  and  _420
REMARK  177  A    between atoms: _420  and  _421
REMARK  178  A    between atoms: _420  and  _423
REMARK  179  A    between atoms: _423  and  _424
REMARK  180  A    between atoms: _429  and  _431
REMARK  181  A    between atoms: _431  and  _432
REMARK  182  A    between atoms: _431  and  _434
REMARK  183  A    between atoms: _434  and  _435
REMARK  184  A    between atoms: _438  and  _440
REMARK  185  A    between atoms: _440  and  _441
REMARK  186  A    between atoms: _440  and  _443
REMARK  187  A    between atoms: _443  and  _444
REMARK  188  A    between atoms: _450  and  _451
REMARK  189  A    between atoms: _456  and  _458
REMARK  190  A    between atoms: _458  and  _459
REMARK  191  A    between atoms: _458  and  _461
REMARK  192  A    between atoms: _461  and  _462
REMARK  193  A    between atoms: _464  and  _466
REMARK  194  A    between atoms: _466  and  _467
REMARK  195  A    between atoms: _466  and  _469
REMARK  196  A    between atoms: _469  and  _470
REMARK  197  A    between atoms: _475  and  _477
REMARK  198  A    between atoms: _477  and  _478
REMARK  199  A    between atoms: _477  and  _480
REMARK  200  A    between atoms: _480  and  _481
REMARK  201  A    between atoms: _484  and  _486
REMARK  202  A    between atoms: _486  and  _487
REMARK  203  A    between atoms: _490  and  _492
REMARK  204  A    between atoms: _492  and  _493
REMARK  205  A    between atoms: _492  and  _495
REMARK  206  A    between atoms: _498  and  _500
REMARK  207  A    between atoms: _500  and  _501
REMARK  208  A    between atoms: _500  and  _503
REMARK  209  A    between atoms: _503  and  _504
REMARK  210  A    between atoms: _504  and  _505
REMARK  211  A    between atoms: _505  and  _506
REMARK  212  A    between atoms: _506  and  _507
REMARK  213  A    between atoms: _511  and  _513
REMARK  214  A    between atoms: _513  and  _514
REMARK  215  A    between atoms: _513  and  _516
REMARK  216  A    between atoms: _516  and  _517
REMARK  217  A    between atoms: _520  and  _522
REMARK  218  A    between atoms: _522  and  _523
REMARK  219  A    between atoms: _522  and  _525
REMARK  220  A    between atoms: _525  and  _526
REMARK  221  A    between atoms: _529  and  _531
REMARK  222  A    between atoms: _531  and  _532
REMARK  223  A    between atoms: _531  and  _534
REMARK  224  A    between atoms: _534  and  _535
REMARK  225  A    between atoms: _538  and  _540
REMARK  226  A    between atoms: _540  and  _541
REMARK  227  A    between atoms: _540  and  _543
REMARK  228  A    between atoms: _543  and  _544
REMARK  229  A    between atoms: _550  and  _552
REMARK  230  A    between atoms: _552  and  _553
REMARK  231  A    between atoms: _555  and  _557
REMARK  232  A    between atoms: _557  and  _558
REMARK  233  A    between atoms: _557  and  _560
REMARK  234  A    between atoms: _560  and  _561
REMARK                            x       y       z     vdW  Elec       q    Type
REMARK                         _______ _______ _______ _____ _____    ______ ____
ROOT
ATOM      1  O   HOH     1      52.295  40.563  35.187  0.00  0.00    +0.000 OA
ENDROOT
TORSDOF 0
REMARK  Name = ../refined-set-2016/3iph/3iph_pocket.pdb
REMARK  234 active torsions:
REMARK  status: ('A' for Active; 'I' for Inactive)
REMARK    1  A    between atoms: _1  and  _3
REMARK    2  A    between atoms: _3  and  _4
REMARK    3  A    between atoms: _3  and  _6
REMARK    4  A    between atoms: _9  and  _11
REMARK    5  A    between atoms: _11  and  _12
REMARK    6  A    between atoms: _14  and  _16
REMARK    7  A    between atoms: _16  and  _17
REMARK    8  A    between atoms: _16  and  _19
REMARK    9  A    between atoms: _19  and  _20
REMARK   10  A    between atoms: _22  and  _24
REMARK   11  A    between atoms: _24  and  _25
REMARK   12  A    between atoms: _27  and  _29
REMARK   13  A    between atoms: _29  and  _30
REMARK   14  A    between atoms: _33  and  _35
REMARK   15  A    between atoms: _35  and  _36
REMARK   16  A    between atoms: _35  and  _38
REMARK   17  A    between atoms: _38  and  _39
REMARK   18  A    between atoms: _44  and  _45
REMARK   19  A    between atoms: _47  and  _49
REMARK   20  A    between atoms: _49  and  _50
REMARK   21  A    between atoms: _49  and  _52
REMARK   22  A    between atoms: _52  and  _53
REMARK   23  A    between atoms: _55  and  _57
REMARK   24  A    between atoms: _57  and  _58
REMARK   25  A    between atoms: _57  and  _60
REMARK   26  A    between atoms: _63  and  _65
REMARK   27  A    between atoms: _65  and  _66
REMARK   28  A    between atoms: _65  and  _68
REMARK   29  A    between atoms: _70  and  _72
REMARK   30  A    between atoms: _72  and  _73
REMARK   31  A    between atoms: _76  and  _78
REMARK   32  A    between atoms: _78  and  _79
REMARK   33  A    between atoms: _78  and  _81
REMARK   34  A    between atoms: _81  and  _82
REMARK   35  A    between atoms: _82  and  _83
REMARK   36  A    between atoms: _83  and  _84
REMARK   37  A    between atoms: _93  and  _95
REMARK   38  A    between atoms: _95  and  _96
REMARK   39  A    between atoms: _95  and  _98
REMARK   40  A    between atoms: _101  and  _103
REMARK   41  A    between atoms: _103  and  _104
REMARK   42  A    between atoms: _107  and  _109
REMARK   43  A    between atoms: _109  and  _110
REMARK   44  A    between atoms: _109  and  _112
REMARK   45  A    between atoms: _115  and  _117
REMARK   46  A    between atoms: _117  and  _118
REMARK   47  A    between atoms: _117  and  _120
REMARK   48  A    between atoms: _120  and  _121
REMARK   49  A    between atoms: _121  and  _122
REMARK   50  A    between atoms: _122  and  _123
REMARK   51  A    between atoms: _123  and  _124
REMARK   52  A    between atoms: _128  and  _130
REMARK   53  A    between atoms: _130  and  _131
REMARK   54  A    between atoms: _130  and  _133
REMARK   55  A    between atoms: _133  and  _134
REMARK   56  A    between atoms: _134  and  _135
REMARK   57  A    between atoms: _135  and  _136
REMARK   58  A    between atoms: _136  and  _137
REMARK   59  A    between atoms: _141  and  _143
REMARK   60  A    between atoms: _143  and  _144
REMARK   61  A    between atoms: _143  and  _146
REMARK   62  A    between atoms: _146  and  _147
REMARK   63  A    between atoms: _150  and  _152
REMARK   64  A    between atoms: _152  and  _153
REMARK   65  A    between atoms: _152  and  _155
REMARK   66  A    between atoms: _155  and  _156
REMARK   67  A    between atoms: _156  and  _157
REMARK   68  A    between atoms: _157  and  _158
REMARK   69  A    between atoms: _167  and  _169
REMARK   70  A    between atoms: _169  and  _170
REMARK   71  A    between atoms: _169  and  _172
REMARK   72  A    between atoms: _172  and  _173
REMARK   73  A    between atoms: _173  and  _174
REMARK   74  A    between atoms: _174  and  _175
REMARK   75  A    between atoms: _184  and  _186
REMARK   76  A    between atoms: _186  and  _187
REMARK   77  A    between atoms: _186  and  _189
REMARK   78  A    between atoms: _189  and  _190
REMARK   79  A    between atoms: _190  and  _191
REMARK   80  A    between atoms: _194  and  _196
REMARK   81  A    between atoms: _196  and  _197
REMARK   82  A    between atoms: _196  and  _199
REMARK   83  A    between atoms: _199  and  _200
REMARK   84  A    between atoms: _203  and  _205
REMARK   85  A    between atoms: _205  and  _206
REMARK   86  A    between atoms: _205  and  _208
REMARK   87  A    between atoms: _208  and  _209
REMARK   88  A    between atoms: _209  and  _210
REMARK   89  A    between atoms: _210  and  _211
REMARK   90  A    between atoms: _220  and  _222
REMARK   91  A    between atoms: _222  and  _223
REMARK   92  A    between atoms: _222  and  _225
REMARK   93  A    between atoms: _225  and  _226
REMARK   94  A    between atoms: _229  and  _231
REMARK   95  A    between atoms: _231  and  _232
REMARK   96  A    between atoms: _231  and  _234
REMARK   97  A    between atoms: _234  and  _235
REMARK   98  A    between atoms: _238  and  _240
REMARK   99  A    between atoms: _240  and  _241
REMARK  100  A    between atoms: _240  and  _243
REMARK  101  A    between atoms: _243  and  _244
REMARK  102  A    between atoms: _244  and  _245
REMARK  103  A    between atoms: _245  and  _246
REMARK  104  A    between atoms: _246  and  _247
REMARK  105  A    between atoms: _251  and  _253
REMARK  106  A    between atoms: _253  and  _254
REMARK  107  A    between atoms: _253  and  _256
REMARK  108  A    between atoms: _256  and  _257
REMARK  109  A    between atoms: _257  and  _258
REMARK  110  A    between atoms: _260  and  _262
REMARK  111  A    between atoms: _262  and  _263
REMARK  112  A    between atoms: _262  and  _265
REMARK  113  A    between atoms: _268  and  _270
REMARK  114  A    between atoms: _270  and  _271
REMARK  115  A    between atoms: _270  and  _273
REMARK  116  A    between atoms: _273  and  _274
REMARK  117  A    between atoms: _277  and  _279
REMARK  118  A    between atoms: _279  and  _280
REMARK  119  A    between atoms: _282  and  _284
REMARK  120  A    between atoms: _284  and  _285
REMARK  121  A    between atoms: _284  and  _287
REMARK  122  A    between atoms: _287  and  _288
REMARK  123  A    between atoms: _291  and  _293
REMARK  124  A    between atoms: _293  and  _294
REMARK  125  A    between atoms: _293  and  _296
REMARK  126  A    between atoms: _296  and  _297
REMARK  127  A    between atoms: _300  and  _302
REMARK  128  A    between atoms: _302  and  _303
REMARK  129  A    between atoms: _302  and  _305
REMARK  130  A    between atoms: _305  and  _306
REMARK  131  A    between atoms: _309  and  _311
REMARK  132  A    between atoms: _311  and  _312
REMARK  133  A    between atoms: _311  and  _314
REMARK  134  A    between atoms: _314  and  _315
REMARK  135  A    between atoms: _320  and  _321
REMARK  136  A    between atoms: _323  and  _325
REMARK  137  A    between atoms: _325  and  _326
REMARK  138  A    between atoms: _325  and  _328
REMARK  139  A    between atoms: _328  and  _329
REMARK  140  A    between atoms: _332  and  _334
REMARK  141  A    between atoms: _334  and  _335
REMARK  142  A    between atoms: _334  and  _337
REMARK  143  A    between atoms: _340  and  _342
REMARK  144  A    between atoms: _342  and  _343
REMARK  145  A    between atoms: _342  and  _345
REMARK  146  A    between atoms: _345  and  _346
REMARK  147  A    between atoms: _349  and  _351
REMARK  148  A    between atoms: _351  and  _352
REMARK  149  A    between atoms: _351  and  _354
REMARK  150  A    between atoms: _354  and  _355
REMARK  151  A    between atoms: _360  and  _362
REMARK  152  A    between atoms: _362  and  _363
REMARK  153  A    between atoms: _362  and  _365
REMARK  154  A    between atoms: _365  and  _366
REMARK  155  A    between atoms: _369  and  _371
REMARK  156  A    between atoms: _371  and  _372
REMARK  157  A    between atoms: _371  and  _374
REMARK  158  A    between atoms: _374  and  _375
REMARK  159  A    between atoms: _375  and  _376
REMARK  160  A    between atoms: _378  and  _380
REMARK  161  A    between atoms: _380  and  _381
REMARK  162  A    between atoms: _383  and  _385
REMARK  163  A    between atoms: _385  and  _386
REMARK  164  A    between atoms: _389  and  _391
REMARK  165  A    between atoms: _391  and  _392
REMARK  166  A    between atoms: _391  and  _394
REMARK  167  A    between atoms: _394  and  _395
REMARK  168  A    between atoms: _398  and  _400
REMARK  169  A    between atoms: _400  and  _401
REMARK  170  A    between atoms: _400  and  _403
REMARK  171  A    between atoms: _403  and  _404
REMARK  172  A    between atoms: _407  and  _409
REMARK  173  A    between atoms: _409  and  _410
REMARK  174  A    between atoms: _409  and  _412
REMARK  175  A    between atoms: _412  and  _413
REMARK  176  A    between atoms: _418  and  _420
REMARK  177  A    between atoms: _420  and  _421
REMARK  178  A    between atoms: _420  and  _423
REMARK  179  A    between atoms: _423  and  _424
REMARK  180  A    between atoms: _429  and  _431
REMARK  181  A    between atoms: _431  and  _432
REMARK  182  A    between atoms: _431  and  _434
REMARK  183  A    between atoms: _434  and  _435
REMARK  184  A    between atoms: _438  and  _440
REMARK  185  A    between atoms: _440  and  _441
REMARK  186  A    between atoms: _440  and  _443
REMARK  187  A    between atoms: _443  and  _444
REMARK  188  A    between atoms: _450  and  _451
REMARK  189  A    between atoms: _456  and  _458
REMARK  190  A    between atoms: _458  and  _459
REMARK  191  A    between atoms: _458  and  _461
REMARK  192  A    between atoms: _461  and  _462
REMARK  193  A    between atoms: _464  and  _466
REMARK  194  A    between atoms: _466  and  _467
REMARK  195  A    between atoms: _466  and  _469
REMARK  196  A    between atoms: _469  and  _470
REMARK  197  A    between atoms: _475  and  _477
REMARK  198  A    between atoms: _477  and  _478
REMARK  199  A    between atoms: _477  and  _480
REMARK  200  A    between atoms: _480  and  _481
REMARK  201  A    between atoms: _484  and  _486
REMARK  202  A    between atoms: _486  and  _487
REMARK  203  A    between atoms: _490  and  _492
REMARK  204  A    between atoms: _492  and  _493
REMARK  205  A    between atoms: _492  and  _495
REMARK  206  A    between atoms: _498  and  _500
REMARK  207  A    between atoms: _500  and  _501
REMARK  208  A    between atoms: _500  and  _503
REMARK  209  A    between atoms: _503  and  _504
REMARK  210  A    between atoms: _504  and  _505
REMARK  211  A    between atoms: _505  and  _506
REMARK  212  A    between atoms: _506  and  _507
REMARK  213  A    between atoms: _511  and  _513
REMARK  214  A    between atoms: _513  and  _514
REMARK  215  A    between atoms: _513  and  _516
REMARK  216  A    between atoms: _516  and  _517
REMARK  217  A    between atoms: _520  and  _522
REMARK  218  A    between atoms: _522  and  _523
REMARK  219  A    between atoms: _522  and  _525
REMARK  220  A    between atoms: _525  and  _526
REMARK  221  A    between atoms: _529  and  _531
REMARK  222  A    between atoms: _531  and  _532
REMARK  223  A    between atoms: _531  and  _534
REMARK  224  A    between atoms: _534  and  _535
REMARK  225  A    between atoms: _538  and  _540
REMARK  226  A    between atoms: _540  and  _541
REMARK  227  A    between atoms: _540  and  _543
REMARK  228  A    between atoms: _543  and  _544
REMARK  229  A    between atoms: _550  and  _552
REMARK  230  A    between atoms: _552  and  _553
REMARK  231  A    between atoms: _555  and  _557
REMARK  232  A    between atoms: _557  and  _558
REMARK  233  A    between atoms: _557  and  _560
REMARK  234  A    between atoms: _560  and  _561
REMARK                            x       y       z     vdW  Elec       q    Type
REMARK                         _______ _______ _______ _____ _____    ______ ____
ROOT
ATOM      1  O   HOH     1      48.577  40.866  29.321  0.00  0.00    +0.000 OA
ENDROOT
TORSDOF 0
REMARK  Name = ../refined-set-2016/3iph/3iph_pocket.pdb
REMARK  234 active torsions:
REMARK  status: ('A' for Active; 'I' for Inactive)
REMARK    1  A    between atoms: _1  and  _3
REMARK    2  A    between atoms: _3  and  _4
REMARK    3  A    between atoms: _3  and  _6
REMARK    4  A    between atoms: _9  and  _11
REMARK    5  A    between atoms: _11  and  _12
REMARK    6  A    between atoms: _14  and  _16
REMARK    7  A    between atoms: _16  and  _17
REMARK    8  A    between atoms: _16  and  _19
REMARK    9  A    between atoms: _19  and  _20
REMARK   10  A    between atoms: _22  and  _24
REMARK   11  A    between atoms: _24  and  _25
REMARK   12  A    between atoms: _27  and  _29
REMARK   13  A    between atoms: _29  and  _30
REMARK   14  A    between atoms: _33  and  _35
REMARK   15  A    between atoms: _35  and  _36
REMARK   16  A    between atoms: _35  and  _38
REMARK   17  A    between atoms: _38  and  _39
REMARK   18  A    between atoms: _44  and  _45
REMARK   19  A    between atoms: _47  and  _49
REMARK   20  A    between atoms: _49  and  _50
REMARK   21  A    between atoms: _49  and  _52
REMARK   22  A    between atoms: _52  and  _53
REMARK   23  A    between atoms: _55  and  _57
REMARK   24  A    between atoms: _57  and  _58
REMARK   25  A    between atoms: _57  and  _60
REMARK   26  A    between atoms: _63  and  _65
REMARK   27  A    between atoms: _65  and  _66
REMARK   28  A    between atoms: _65  and  _68
REMARK   29  A    between atoms: _70  and  _72
REMARK   30  A    between atoms: _72  and  _73
REMARK   31  A    between atoms: _76  and  _78
REMARK   32  A    between atoms: _78  and  _79
REMARK   33  A    between atoms: _78  and  _81
REMARK   34  A    between atoms: _81  and  _82
REMARK   35  A    between atoms: _82  and  _83
REMARK   36  A    between atoms: _83  and  _84
REMARK   37  A    between atoms: _93  and  _95
REMARK   38  A    between atoms: _95  and  _96
REMARK   39  A    between atoms: _95  and  _98
REMARK   40  A    between atoms: _101  and  _103
REMARK   41  A    between atoms: _103  and  _104
REMARK   42  A    between atoms: _107  and  _109
REMARK   43  A    between atoms: _109  and  _110
REMARK   44  A    between atoms: _109  and  _112
REMARK   45  A    between atoms: _115  and  _117
REMARK   46  A    between atoms: _117  and  _118
REMARK   47  A    between atoms: _117  and  _120
REMARK   48  A    between atoms: _120  and  _121
REMARK   49  A    between atoms: _121  and  _122
REMARK   50  A    between atoms: _122  and  _123
REMARK   51  A    between atoms: _123  and  _124
REMARK   52  A    between atoms: _128  and  _130
REMARK   53  A    between atoms: _130  and  _131
REMARK   54  A    between atoms: _130  and  _133
REMARK   55  A    between atoms: _133  and  _134
REMARK   56  A    between atoms: _134  and  _135
REMARK   57  A    between atoms: _135  and  _136
REMARK   58  A    between atoms: _136  and  _137
REMARK   59  A    between atoms: _141  and  _143
REMARK   60  A    between atoms: _143  and  _144
REMARK   61  A    between atoms: _143  and  _146
REMARK   62  A    between atoms: _146  and  _147
REMARK   63  A    between atoms: _150  and  _152
REMARK   64  A    between atoms: _152  and  _153
REMARK   65  A    between atoms: _152  and  _155
REMARK   66  A    between atoms: _155  and  _156
REMARK   67  A    between atoms: _156  and  _157
REMARK   68  A    between atoms: _157  and  _158
REMARK   69  A    between atoms: _167  and  _169
REMARK   70  A    between atoms: _169  and  _170
REMARK   71  A    between atoms: _169  and  _172
REMARK   72  A    between atoms: _172  and  _173
REMARK   73  A    between atoms: _173  and  _174
REMARK   74  A    between atoms: _174  and  _175
REMARK   75  A    between atoms: _184  and  _186
REMARK   76  A    between atoms: _186  and  _187
REMARK   77  A    between atoms: _186  and  _189
REMARK   78  A    between atoms: _189  and  _190
REMARK   79  A    between atoms: _190  and  _191
REMARK   80  A    between atoms: _194  and  _196
REMARK   81  A    between atoms: _196  and  _197
REMARK   82  A    between atoms: _196  and  _199
REMARK   83  A    between atoms: _199  and  _200
REMARK   84  A    between atoms: _203  and  _205
REMARK   85  A    between atoms: _205  and  _206
REMARK   86  A    between atoms: _205  and  _208
REMARK   87  A    between atoms: _208  and  _209
REMARK   88  A    between atoms: _209  and  _210
REMARK   89  A    between atoms: _210  and  _211
REMARK   90  A    between atoms: _220  and  _222
REMARK   91  A    between atoms: _222  and  _223
REMARK   92  A    between atoms: _222  and  _225
REMARK   93  A    between atoms: _225  and  _226
REMARK   94  A    between atoms: _229  and  _231
REMARK   95  A    between atoms: _231  and  _232
REMARK   96  A    between atoms: _231  and  _234
REMARK   97  A    between atoms: _234  and  _235
REMARK   98  A    between atoms: _238  and  _240
REMARK   99  A    between atoms: _240  and  _241
REMARK  100  A    between atoms: _240  and  _243
REMARK  101  A    between atoms: _243  and  _244
REMARK  102  A    between atoms: _244  and  _245
REMARK  103  A    between atoms: _245  and  _246
REMARK  104  A    between atoms: _246  and  _247
REMARK  105  A    between atoms: _251  and  _253
REMARK  106  A    between atoms: _253  and  _254
REMARK  107  A    between atoms: _253  and  _256
REMARK  108  A    between atoms: _256  and  _257
REMARK  109  A    between atoms: _257  and  _258
REMARK  110  A    between atoms: _260  and  _262
REMARK  111  A    between atoms: _262  and  _263
REMARK  112  A    between atoms: _262  and  _265
REMARK  113  A    between atoms: _268  and  _270
REMARK  114  A    between atoms: _270  and  _271
REMARK  115  A    between atoms: _270  and  _273
REMARK  116  A    between atoms: _273  and  _274
REMARK  117  A    between atoms: _277  and  _279
REMARK  118  A    between atoms: _279  and  _280
REMARK  119  A    between atoms: _282  and  _284
REMARK  120  A    between atoms: _284  and  _285
REMARK  121  A    between atoms: _284  and  _287
REMARK  122  A    between atoms: _287  and  _288
REMARK  123  A    between atoms: _291  and  _293
REMARK  124  A    between atoms: _293  and  _294
REMARK  125  A    between atoms: _293  and  _296
REMARK  126  A    between atoms: _296  and  _297
REMARK  127  A    between atoms: _300  and  _302
REMARK  128  A    between atoms: _302  and  _303
REMARK  129  A    between atoms: _302  and  _305
REMARK  130  A    between atoms: _305  and  _306
REMARK  131  A    between atoms: _309  and  _311
REMARK  132  A    between atoms: _311  and  _312
REMARK  133  A    between atoms: _311  and  _314
REMARK  134  A    between atoms: _314  and  _315
REMARK  135  A    between atoms: _320  and  _321
REMARK  136  A    between atoms: _323  and  _325
REMARK  137  A    between atoms: _325  and  _326
REMARK  138  A    between atoms: _325  and  _328
REMARK  139  A    between atoms: _328  and  _329
REMARK  140  A    between atoms: _332  and  _334
REMARK  141  A    between atoms: _334  and  _335
REMARK  142  A    between atoms: _334  and  _337
REMARK  143  A    between atoms: _340  and  _342
REMARK  144  A    between atoms: _342  and  _343
REMARK  145  A    between atoms: _342  and  _345
REMARK  146  A    between atoms: _345  and  _346
REMARK  147  A    between atoms: _349  and  _351
REMARK  148  A    between atoms: _351  and  _352
REMARK  149  A    between atoms: _351  and  _354
REMARK  150  A    between atoms: _354  and  _355
REMARK  151  A    between atoms: _360  and  _362
REMARK  152  A    between atoms: _362  and  _363
REMARK  153  A    between atoms: _362  and  _365
REMARK  154  A    between atoms: _365  and  _366
REMARK  155  A    between atoms: _369  and  _371
REMARK  156  A    between atoms: _371  and  _372
REMARK  157  A    between atoms: _371  and  _374
REMARK  158  A    between atoms: _374  and  _375
REMARK  159  A    between atoms: _375  and  _376
REMARK  160  A    between atoms: _378  and  _380
REMARK  161  A    between atoms: _380  and  _381
REMARK  162  A    between atoms: _383  and  _385
REMARK  163  A    between atoms: _385  and  _386
REMARK  164  A    between atoms: _389  and  _391
REMARK  165  A    between atoms: _391  and  _392
REMARK  166  A    between atoms: _391  and  _394
REMARK  167  A    between atoms: _394  and  _395
REMARK  168  A    between atoms: _398  and  _400
REMARK  169  A    between atoms: _400  and  _401
REMARK  170  A    between atoms: _400  and  _403
REMARK  171  A    between atoms: _403  and  _404
REMARK  172  A    between atoms: _407  and  _409
REMARK  173  A    between atoms: _409  and  _410
REMARK  174  A    between atoms: _409  and  _412
REMARK  175  A    between atoms: _412  and  _413
REMARK  176  A    between atoms: _418  and  _420
REMARK  177  A    between atoms: _420  and  _421
REMARK  178  A    between atoms: _420  and  _423
REMARK  179  A    between atoms: _423  and  _424
REMARK  180  A    between atoms: _429  and  _431
REMARK  181  A    between atoms: _431  and  _432
REMARK  182  A    between atoms: _431  and  _434
REMARK  183  A    between atoms: _434  and  _435
REMARK  184  A    between atoms: _438  and  _440
REMARK  185  A    between atoms: _440  and  _441
REMARK  186  A    between atoms: _440  and  _443
REMARK  187  A    between atoms: _443  and  _444
REMARK  188  A    between atoms: _450  and  _451
REMARK  189  A    between atoms: _456  and  _458
REMARK  190  A    between atoms: _458  and  _459
REMARK  191  A    between atoms: _458  and  _461
REMARK  192  A    between atoms: _461  and  _462
REMARK  193  A    between atoms: _464  and  _466
REMARK  194  A    between atoms: _466  and  _467
REMARK  195  A    between atoms: _466  and  _469
REMARK  196  A    between atoms: _469  and  _470
REMARK  197  A    between atoms: _475  and  _477
REMARK  198  A    between atoms: _477  and  _478
REMARK  199  A    between atoms: _477  and  _480
REMARK  200  A    between atoms: _480  and  _481
REMARK  201  A    between atoms: _484  and  _486
REMARK  202  A    between atoms: _486  and  _487
REMARK  203  A    between atoms: _490  and  _492
REMARK  204  A    between atoms: _492  and  _493
REMARK  205  A    between atoms: _492  and  _495
REMARK  206  A    between atoms: _498  and  _500
REMARK  207  A    between atoms: _500  and  _501
REMARK  208  A    between atoms: _500  and  _503
REMARK  209  A    between atoms: _503  and  _504
REMARK  210  A    between atoms: _504  and  _505
REMARK  211  A    between atoms: _505  and  _506
REMARK  212  A    between atoms: _506  and  _507
REMARK  213  A    between atoms: _511  and  _513
REMARK  214  A    between atoms: _513  and  _514
REMARK  215  A    between atoms: _513  and  _516
REMARK  216  A    between atoms: _516  and  _517
REMARK  217  A    between atoms: _520  and  _522
REMARK  218  A    between atoms: _522  and  _523
REMARK  219  A    between atoms: _522  and  _525
REMARK  220  A    between atoms: _525  and  _526
REMARK  221  A    between atoms: _529  and  _531
REMARK  222  A    between atoms: _531  and  _532
REMARK  223  A    between atoms: _531  and  _534
REMARK  224  A    between atoms: _534  and  _535
REMARK  225  A    between atoms: _538  and  _540
REMARK  226  A    between atoms: _540  and  _541
REMARK  227  A    between atoms: _540  and  _543
REMARK  228  A    between atoms: _543  and  _544
REMARK  229  A    between atoms: _550  and  _552
REMARK  230  A    between atoms: _552  and  _553
REMARK  231  A    between atoms: _555  and  _557
REMARK  232  A    between atoms: _557  and  _558
REMARK  233  A    between atoms: _557  and  _560
REMARK  234  A    between atoms: _560  and  _561
REMARK                            x       y       z     vdW  Elec       q    Type
REMARK                         _______ _______ _______ _____ _____    ______ ____
ROOT
ATOM      1  O   HOH     1      34.841  22.648  31.329  0.00  0.00    +0.000 OA
ENDROOT
TORSDOF 0
REMARK  Name = ../refined-set-2016/3iph/3iph_pocket.pdb
REMARK  234 active torsions:
REMARK  status: ('A' for Active; 'I' for Inactive)
REMARK    1  A    between atoms: _1  and  _3
REMARK    2  A    between atoms: _3  and  _4
REMARK    3  A    between atoms: _3  and  _6
REMARK    4  A    between atoms: _9  and  _11
REMARK    5  A    between atoms: _11  and  _12
REMARK    6  A    between atoms: _14  and  _16
REMARK    7  A    between atoms: _16  and  _17
REMARK    8  A    between atoms: _16  and  _19
REMARK    9  A    between atoms: _19  and  _20
REMARK   10  A    between atoms: _22  and  _24
REMARK   11  A    between atoms: _24  and  _25
REMARK   12  A    between atoms: _27  and  _29
REMARK   13  A    between atoms: _29  and  _30
REMARK   14  A    between atoms: _33  and  _35
REMARK   15  A    between atoms: _35  and  _36
REMARK   16  A    between atoms: _35  and  _38
REMARK   17  A    between atoms: _38  and  _39
REMARK   18  A    between atoms: _44  and  _45
REMARK   19  A    between atoms: _47  and  _49
REMARK   20  A    between atoms: _49  and  _50
REMARK   21  A    between atoms: _49  and  _52
REMARK   22  A    between atoms: _52  and  _53
REMARK   23  A    between atoms: _55  and  _57
REMARK   24  A    between atoms: _57  and  _58
REMARK   25  A    between atoms: _57  and  _60
REMARK   26  A    between atoms: _63  and  _65
REMARK   27  A    between atoms: _65  and  _66
REMARK   28  A    between atoms: _65  and  _68
REMARK   29  A    between atoms: _70  and  _72
REMARK   30  A    between atoms: _72  and  _73
REMARK   31  A    between atoms: _76  and  _78
REMARK   32  A    between atoms: _78  and  _79
REMARK   33  A    between atoms: _78  and  _81
REMARK   34  A    between atoms: _81  and  _82
REMARK   35  A    between atoms: _82  and  _83
REMARK   36  A    between atoms: _83  and  _84
REMARK   37  A    between atoms: _93  and  _95
REMARK   38  A    between atoms: _95  and  _96
REMARK   39  A    between atoms: _95  and  _98
REMARK   40  A    between atoms: _101  and  _103
REMARK   41  A    between atoms: _103  and  _104
REMARK   42  A    between atoms: _107  and  _109
REMARK   43  A    between atoms: _109  and  _110
REMARK   44  A    between atoms: _109  and  _112
REMARK   45  A    between atoms: _115  and  _117
REMARK   46  A    between atoms: _117  and  _118
REMARK   47  A    between atoms: _117  and  _120
REMARK   48  A    between atoms: _120  and  _121
REMARK   49  A    between atoms: _121  and  _122
REMARK   50  A    between atoms: _122  and  _123
REMARK   51  A    between atoms: _123  and  _124
REMARK   52  A    between atoms: _128  and  _130
REMARK   53  A    between atoms: _130  and  _131
REMARK   54  A    between atoms: _130  and  _133
REMARK   55  A    between atoms: _133  and  _134
REMARK   56  A    between atoms: _134  and  _135
REMARK   57  A    between atoms: _135  and  _136
REMARK   58  A    between atoms: _136  and  _137
REMARK   59  A    between atoms: _141  and  _143
REMARK   60  A    between atoms: _143  and  _144
REMARK   61  A    between atoms: _143  and  _146
REMARK   62  A    between atoms: _146  and  _147
REMARK   63  A    between atoms: _150  and  _152
REMARK   64  A    between atoms: _152  and  _153
REMARK   65  A    between atoms: _152  and  _155
REMARK   66  A    between atoms: _155  and  _156
REMARK   67  A    between atoms: _156  and  _157
REMARK   68  A    between atoms: _157  and  _158
REMARK   69  A    between atoms: _167  and  _169
REMARK   70  A    between atoms: _169  and  _170
REMARK   71  A    between atoms: _169  and  _172
REMARK   72  A    between atoms: _172  and  _173
REMARK   73  A    between atoms: _173  and  _174
REMARK   74  A    between atoms: _174  and  _175
REMARK   75  A    between atoms: _184  and  _186
REMARK   76  A    between atoms: _186  and  _187
REMARK   77  A    between atoms: _186  and  _189
REMARK   78  A    between atoms: _189  and  _190
REMARK   79  A    between atoms: _190  and  _191
REMARK   80  A    between atoms: _194  and  _196
REMARK   81  A    between atoms: _196  and  _197
REMARK   82  A    between atoms: _196  and  _199
REMARK   83  A    between atoms: _199  and  _200
REMARK   84  A    between atoms: _203  and  _205
REMARK   85  A    between atoms: _205  and  _206
REMARK   86  A    between atoms: _205  and  _208
REMARK   87  A    between atoms: _208  and  _209
REMARK   88  A    between atoms: _209  and  _210
REMARK   89  A    between atoms: _210  and  _211
REMARK   90  A    between atoms: _220  and  _222
REMARK   91  A    between atoms: _222  and  _223
REMARK   92  A    between atoms: _222  and  _225
REMARK   93  A    between atoms: _225  and  _226
REMARK   94  A    between atoms: _229  and  _231
REMARK   95  A    between atoms: _231  and  _232
REMARK   96  A    between atoms: _231  and  _234
REMARK   97  A    between atoms: _234  and  _235
REMARK   98  A    between atoms: _238  and  _240
REMARK   99  A    between atoms: _240  and  _241
REMARK  100  A    between atoms: _240  and  _243
REMARK  101  A    between atoms: _243  and  _244
REMARK  102  A    between atoms: _244  and  _245
REMARK  103  A    between atoms: _245  and  _246
REMARK  104  A    between atoms: _246  and  _247
REMARK  105  A    between atoms: _251  and  _253
REMARK  106  A    between atoms: _253  and  _254
REMARK  107  A    between atoms: _253  and  _256
REMARK  108  A    between atoms: _256  and  _257
REMARK  109  A    between atoms: _257  and  _258
REMARK  110  A    between atoms: _260  and  _262
REMARK  111  A    between atoms: _262  and  _263
REMARK  112  A    between atoms: _262  and  _265
REMARK  113  A    between atoms: _268  and  _270
REMARK  114  A    between atoms: _270  and  _271
REMARK  115  A    between atoms: _270  and  _273
REMARK  116  A    between atoms: _273  and  _274
REMARK  117  A    between atoms: _277  and  _279
REMARK  118  A    between atoms: _279  and  _280
REMARK  119  A    between atoms: _282  and  _284
REMARK  120  A    between atoms: _284  and  _285
REMARK  121  A    between atoms: _284  and  _287
REMARK  122  A    between atoms: _287  and  _288
REMARK  123  A    between atoms: _291  and  _293
REMARK  124  A    between atoms: _293  and  _294
REMARK  125  A    between atoms: _293  and  _296
REMARK  126  A    between atoms: _296  and  _297
REMARK  127  A    between atoms: _300  and  _302
REMARK  128  A    between atoms: _302  and  _303
REMARK  129  A    between atoms: _302  and  _305
REMARK  130  A    between atoms: _305  and  _306
REMARK  131  A    between atoms: _309  and  _311
REMARK  132  A    between atoms: _311  and  _312
REMARK  133  A    between atoms: _311  and  _314
REMARK  134  A    between atoms: _314  and  _315
REMARK  135  A    between atoms: _320  and  _321
REMARK  136  A    between atoms: _323  and  _325
REMARK  137  A    between atoms: _325  and  _326
REMARK  138  A    between atoms: _325  and  _328
REMARK  139  A    between atoms: _328  and  _329
REMARK  140  A    between atoms: _332  and  _334
REMARK  141  A    between atoms: _334  and  _335
REMARK  142  A    between atoms: _334  and  _337
REMARK  143  A    between atoms: _340  and  _342
REMARK  144  A    between atoms: _342  and  _343
REMARK  145  A    between atoms: _342  and  _345
REMARK  146  A    between atoms: _345  and  _346
REMARK  147  A    between atoms: _349  and  _351
REMARK  148  A    between atoms: _351  and  _352
REMARK  149  A    between atoms: _351  and  _354
REMARK  150  A    between atoms: _354  and  _355
REMARK  151  A    between atoms: _360  and  _362
REMARK  152  A    between atoms: _362  and  _363
REMARK  153  A    between atoms: _362  and  _365
REMARK  154  A    between atoms: _365  and  _366
REMARK  155  A    between atoms: _369  and  _371
REMARK  156  A    between atoms: _371  and  _372
REMARK  157  A    between atoms: _371  and  _374
REMARK  158  A    between atoms: _374  and  _375
REMARK  159  A    between atoms: _375  and  _376
REMARK  160  A    between atoms: _378  and  _380
REMARK  161  A    between atoms: _380  and  _381
REMARK  162  A    between atoms: _383  and  _385
REMARK  163  A    between atoms: _385  and  _386
REMARK  164  A    between atoms: _389  and  _391
REMARK  165  A    between atoms: _391  and  _392
REMARK  166  A    between atoms: _391  and  _394
REMARK  167  A    between atoms: _394  and  _395
REMARK  168  A    between atoms: _398  and  _400
REMARK  169  A    between atoms: _400  and  _401
REMARK  170  A    between atoms: _400  and  _403
REMARK  171  A    between atoms: _403  and  _404
REMARK  172  A    between atoms: _407  and  _409
REMARK  173  A    between atoms: _409  and  _410
REMARK  174  A    between atoms: _409  and  _412
REMARK  175  A    between atoms: _412  and  _413
REMARK  176  A    between atoms: _418  and  _420
REMARK  177  A    between atoms: _420  and  _421
REMARK  178  A    between atoms: _420  and  _423
REMARK  179  A    between atoms: _423  and  _424
REMARK  180  A    between atoms: _429  and  _431
REMARK  181  A    between atoms: _431  and  _432
REMARK  182  A    between atoms: _431  and  _434
REMARK  183  A    between atoms: _434  and  _435
REMARK  184  A    between atoms: _438  and  _440
REMARK  185  A    between atoms: _440  and  _441
REMARK  186  A    between atoms: _440  and  _443
REMARK  187  A    between atoms: _443  and  _444
REMARK  188  A    between atoms: _450  and  _451
REMARK  189  A    between atoms: _456  and  _458
REMARK  190  A    between atoms: _458  and  _459
REMARK  191  A    between atoms: _458  and  _461
REMARK  192  A    between atoms: _461  and  _462
REMARK  193  A    between atoms: _464  and  _466
REMARK  194  A    between atoms: _466  and  _467
REMARK  195  A    between atoms: _466  and  _469
REMARK  196  A    between atoms: _469  and  _470
REMARK  197  A    between atoms: _475  and  _477
REMARK  198  A    between atoms: _477  and  _478
REMARK  199  A    between atoms: _477  and  _480
REMARK  200  A    between atoms: _480  and  _481
REMARK  201  A    between atoms: _484  and  _486
REMARK  202  A    between atoms: _486  and  _487
REMARK  203  A    between atoms: _490  and  _492
REMARK  204  A    between atoms: _492  and  _493
REMARK  205  A    between atoms: _492  and  _495
REMARK  206  A    between atoms: _498  and  _500
REMARK  207  A    between atoms: _500  and  _501
REMARK  208  A    between atoms: _500  and  _503
REMARK  209  A    between atoms: _503  and  _504
REMARK  210  A    between atoms: _504  and  _505
REMARK  211  A    between atoms: _505  and  _506
REMARK  212  A    between atoms: _506  and  _507
REMARK  213  A    between atoms: _511  and  _513
REMARK  214  A    between atoms: _513  and  _514
REMARK  215  A    between atoms: _513  and  _516
REMARK  216  A    between atoms: _516  and  _517
REMARK  217  A    between atoms: _520  and  _522
REMARK  218  A    between atoms: _522  and  _523
REMARK  219  A    between atoms: _522  and  _525
REMARK  220  A    between atoms: _525  and  _526
REMARK  221  A    between atoms: _529  and  _531
REMARK  222  A    between atoms: _531  and  _532
REMARK  223  A    between atoms: _531  and  _534
REMARK  224  A    between atoms: _534  and  _535
REMARK  225  A    between atoms: _538  and  _540
REMARK  226  A    between atoms: _540  and  _541
REMARK  227  A    between atoms: _540  and  _543
REMARK  228  A    between atoms: _543  and  _544
REMARK  229  A    between atoms: _550  and  _552
REMARK  230  A    between atoms: _552  and  _553
REMARK  231  A    between atoms: _555  and  _557
REMARK  232  A    between atoms: _557  and  _558
REMARK  233  A    between atoms: _557  and  _560
REMARK  234  A    between atoms: _560  and  _561
REMARK                            x       y       z     vdW  Elec       q    Type
REMARK                         _______ _______ _______ _____ _____    ______ ____
ROOT
ATOM      1  O   HOH     1      44.458  21.838  36.968  0.00  0.00    +0.000 OA
ENDROOT
TORSDOF 0
REMARK  Name = ../refined-set-2016/3iph/3iph_pocket.pdb
REMARK  234 active torsions:
REMARK  status: ('A' for Active; 'I' for Inactive)
REMARK    1  A    between atoms: _1  and  _3
REMARK    2  A    between atoms: _3  and  _4
REMARK    3  A    between atoms: _3  and  _6
REMARK    4  A    between atoms: _9  and  _11
REMARK    5  A    between atoms: _11  and  _12
REMARK    6  A    between atoms: _14  and  _16
REMARK    7  A    between atoms: _16  and  _17
REMARK    8  A    between atoms: _16  and  _19
REMARK    9  A    between atoms: _19  and  _20
REMARK   10  A    between atoms: _22  and  _24
REMARK   11  A    between atoms: _24  and  _25
REMARK   12  A    between atoms: _27  and  _29
REMARK   13  A    between atoms: _29  and  _30
REMARK   14  A    between atoms: _33  and  _35
REMARK   15  A    between atoms: _35  and  _36
REMARK   16  A    between atoms: _35  and  _38
REMARK   17  A    between atoms: _38  and  _39
REMARK   18  A    between atoms: _44  and  _45
REMARK   19  A    between atoms: _47  and  _49
REMARK   20  A    between atoms: _49  and  _50
REMARK   21  A    between atoms: _49  and  _52
REMARK   22  A    between atoms: _52  and  _53
REMARK   23  A    between atoms: _55  and  _57
REMARK   24  A    between atoms: _57  and  _58
REMARK   25  A    between atoms: _57  and  _60
REMARK   26  A    between atoms: _63  and  _65
REMARK   27  A    between atoms: _65  and  _66
REMARK   28  A    between atoms: _65  and  _68
REMARK   29  A    between atoms: _70  and  _72
REMARK   30  A    between atoms: _72  and  _73
REMARK   31  A    between atoms: _76  and  _78
REMARK   32  A    between atoms: _78  and  _79
REMARK   33  A    between atoms: _78  and  _81
REMARK   34  A    between atoms: _81  and  _82
REMARK   35  A    between atoms: _82  and  _83
REMARK   36  A    between atoms: _83  and  _84
REMARK   37  A    between atoms: _93  and  _95
REMARK   38  A    between atoms: _95  and  _96
REMARK   39  A    between atoms: _95  and  _98
REMARK   40  A    between atoms: _101  and  _103
REMARK   41  A    between atoms: _103  and  _104
REMARK   42  A    between atoms: _107  and  _109
REMARK   43  A    between atoms: _109  and  _110
REMARK   44  A    between atoms: _109  and  _112
REMARK   45  A    between atoms: _115  and  _117
REMARK   46  A    between atoms: _117  and  _118
REMARK   47  A    between atoms: _117  and  _120
REMARK   48  A    between atoms: _120  and  _121
REMARK   49  A    between atoms: _121  and  _122
REMARK   50  A    between atoms: _122  and  _123
REMARK   51  A    between atoms: _123  and  _124
REMARK   52  A    between atoms: _128  and  _130
REMARK   53  A    between atoms: _130  and  _131
REMARK   54  A    between atoms: _130  and  _133
REMARK   55  A    between atoms: _133  and  _134
REMARK   56  A    between atoms: _134  and  _135
REMARK   57  A    between atoms: _135  and  _136
REMARK   58  A    between atoms: _136  and  _137
REMARK   59  A    between atoms: _141  and  _143
REMARK   60  A    between atoms: _143  and  _144
REMARK   61  A    between atoms: _143  and  _146
REMARK   62  A    between atoms: _146  and  _147
REMARK   63  A    between atoms: _150  and  _152
REMARK   64  A    between atoms: _152  and  _153
REMARK   65  A    between atoms: _152  and  _155
REMARK   66  A    between atoms: _155  and  _156
REMARK   67  A    between atoms: _156  and  _157
REMARK   68  A    between atoms: _157  and  _158
REMARK   69  A    between atoms: _167  and  _169
REMARK   70  A    between atoms: _169  and  _170
REMARK   71  A    between atoms: _169  and  _172
REMARK   72  A    between atoms: _172  and  _173
REMARK   73  A    between atoms: _173  and  _174
REMARK   74  A    between atoms: _174  and  _175
REMARK   75  A    between atoms: _184  and  _186
REMARK   76  A    between atoms: _186  and  _187
REMARK   77  A    between atoms: _186  and  _189
REMARK   78  A    between atoms: _189  and  _190
REMARK   79  A    between atoms: _190  and  _191
REMARK   80  A    between atoms: _194  and  _196
REMARK   81  A    between atoms: _196  and  _197
REMARK   82  A    between atoms: _196  and  _199
REMARK   83  A    between atoms: _199  and  _200
REMARK   84  A    between atoms: _203  and  _205
REMARK   85  A    between atoms: _205  and  _206
REMARK   86  A    between atoms: _205  and  _208
REMARK   87  A    between atoms: _208  and  _209
REMARK   88  A    between atoms: _209  and  _210
REMARK   89  A    between atoms: _210  and  _211
REMARK   90  A    between atoms: _220  and  _222
REMARK   91  A    between atoms: _222  and  _223
REMARK   92  A    between atoms: _222  and  _225
REMARK   93  A    between atoms: _225  and  _226
REMARK   94  A    between atoms: _229  and  _231
REMARK   95  A    between atoms: _231  and  _232
REMARK   96  A    between atoms: _231  and  _234
REMARK   97  A    between atoms: _234  and  _235
REMARK   98  A    between atoms: _238  and  _240
REMARK   99  A    between atoms: _240  and  _241
REMARK  100  A    between atoms: _240  and  _243
REMARK  101  A    between atoms: _243  and  _244
REMARK  102  A    between atoms: _244  and  _245
REMARK  103  A    between atoms: _245  and  _246
REMARK  104  A    between atoms: _246  and  _247
REMARK  105  A    between atoms: _251  and  _253
REMARK  106  A    between atoms: _253  and  _254
REMARK  107  A    between atoms: _253  and  _256
REMARK  108  A    between atoms: _256  and  _257
REMARK  109  A    between atoms: _257  and  _258
REMARK  110  A    between atoms: _260  and  _262
REMARK  111  A    between atoms: _262  and  _263
REMARK  112  A    between atoms: _262  and  _265
REMARK  113  A    between atoms: _268  and  _270
REMARK  114  A    between atoms: _270  and  _271
REMARK  115  A    between atoms: _270  and  _273
REMARK  116  A    between atoms: _273  and  _274
REMARK  117  A    between atoms: _277  and  _279
REMARK  118  A    between atoms: _279  and  _280
REMARK  119  A    between atoms: _282  and  _284
REMARK  120  A    between atoms: _284  and  _285
REMARK  121  A    between atoms: _284  and  _287
REMARK  122  A    between atoms: _287  and  _288
REMARK  123  A    between atoms: _291  and  _293
REMARK  124  A    between atoms: _293  and  _294
REMARK  125  A    between atoms: _293  and  _296
REMARK  126  A    between atoms: _296  and  _297
REMARK  127  A    between atoms: _300  and  _302
REMARK  128  A    between atoms: _302  and  _303
REMARK  129  A    between atoms: _302  and  _305
REMARK  130  A    between atoms: _305  and  _306
REMARK  131  A    between atoms: _309  and  _311
REMARK  132  A    between atoms: _311  and  _312
REMARK  133  A    between atoms: _311  and  _314
REMARK  134  A    between atoms: _314  and  _315
REMARK  135  A    between atoms: _320  and  _321
REMARK  136  A    between atoms: _323  and  _325
REMARK  137  A    between atoms: _325  and  _326
REMARK  138  A    between atoms: _325  and  _328
REMARK  139  A    between atoms: _328  and  _329
REMARK  140  A    between atoms: _332  and  _334
REMARK  141  A    between atoms: _334  and  _335
REMARK  142  A    between atoms: _334  and  _337
REMARK  143  A    between atoms: _340  and  _342
REMARK  144  A    between atoms: _342  and  _343
REMARK  145  A    between atoms: _342  and  _345
REMARK  146  A    between atoms: _345  and  _346
REMARK  147  A    between atoms: _349  and  _351
REMARK  148  A    between atoms: _351  and  _352
REMARK  149  A    between atoms: _351  and  _354
REMARK  150  A    between atoms: _354  and  _355
REMARK  151  A    between atoms: _360  and  _362
REMARK  152  A    between atoms: _362  and  _363
REMARK  153  A    between atoms: _362  and  _365
REMARK  154  A    between atoms: _365  and  _366
REMARK  155  A    between atoms: _369  and  _371
REMARK  156  A    between atoms: _371  and  _372
REMARK  157  A    between atoms: _371  and  _374
REMARK  158  A    between atoms: _374  and  _375
REMARK  159  A    between atoms: _375  and  _376
REMARK  160  A    between atoms: _378  and  _380
REMARK  161  A    between atoms: _380  and  _381
REMARK  162  A    between atoms: _383  and  _385
REMARK  163  A    between atoms: _385  and  _386
REMARK  164  A    between atoms: _389  and  _391
REMARK  165  A    between atoms: _391  and  _392
REMARK  166  A    between atoms: _391  and  _394
REMARK  167  A    between atoms: _394  and  _395
REMARK  168  A    between atoms: _398  and  _400
REMARK  169  A    between atoms: _400  and  _401
REMARK  170  A    between atoms: _400  and  _403
REMARK  171  A    between atoms: _403  and  _404
REMARK  172  A    between atoms: _407  and  _409
REMARK  173  A    between atoms: _409  and  _410
REMARK  174  A    between atoms: _409  and  _412
REMARK  175  A    between atoms: _412  and  _413
REMARK  176  A    between atoms: _418  and  _420
REMARK  177  A    between atoms: _420  and  _421
REMARK  178  A    between atoms: _420  and  _423
REMARK  179  A    between atoms: _423  and  _424
REMARK  180  A    between atoms: _429  and  _431
REMARK  181  A    between atoms: _431  and  _432
REMARK  182  A    between atoms: _431  and  _434
REMARK  183  A    between atoms: _434  and  _435
REMARK  184  A    between atoms: _438  and  _440
REMARK  185  A    between atoms: _440  and  _441
REMARK  186  A    between atoms: _440  and  _443
REMARK  187  A    between atoms: _443  and  _444
REMARK  188  A    between atoms: _450  and  _451
REMARK  189  A    between atoms: _456  and  _458
REMARK  190  A    between atoms: _458  and  _459
REMARK  191  A    between atoms: _458  and  _461
REMARK  192  A    between atoms: _461  and  _462
REMARK  193  A    between atoms: _464  and  _466
REMARK  194  A    between atoms: _466  and  _467
REMARK  195  A    between atoms: _466  and  _469
REMARK  196  A    between atoms: _469  and  _470
REMARK  197  A    between atoms: _475  and  _477
REMARK  198  A    between atoms: _477  and  _478
REMARK  199  A    between atoms: _477  and  _480
REMARK  200  A    between atoms: _480  and  _481
REMARK  201  A    between atoms: _484  and  _486
REMARK  202  A    between atoms: _486  and  _487
REMARK  203  A    between atoms: _490  and  _492
REMARK  204  A    between atoms: _492  and  _493
REMARK  205  A    between atoms: _492  and  _495
REMARK  206  A    between atoms: _498  and  _500
REMARK  207  A    between atoms: _500  and  _501
REMARK  208  A    between atoms: _500  and  _503
REMARK  209  A    between atoms: _503  and  _504
REMARK  210  A    between atoms: _504  and  _505
REMARK  211  A    between atoms: _505  and  _506
REMARK  212  A    between atoms: _506  and  _507
REMARK  213  A    between atoms: _511  and  _513
REMARK  214  A    between atoms: _513  and  _514
REMARK  215  A    between atoms: _513  and  _516
REMARK  216  A    between atoms: _516  and  _517
REMARK  217  A    between atoms: _520  and  _522
REMARK  218  A    between atoms: _522  and  _523
REMARK  219  A    between atoms: _522  and  _525
REMARK  220  A    between atoms: _525  and  _526
REMARK  221  A    between atoms: _529  and  _531
REMARK  222  A    between atoms: _531  and  _532
REMARK  223  A    between atoms: _531  and  _534
REMARK  224  A    between atoms: _534  and  _535
REMARK  225  A    between atoms: _538  and  _540
REMARK  226  A    between atoms: _540  and  _541
REMARK  227  A    between atoms: _540  and  _543
REMARK  228  A    between atoms: _543  and  _544
REMARK  229  A    between atoms: _550  and  _552
REMARK  230  A    between atoms: _552  and  _553
REMARK  231  A    between atoms: _555  and  _557
REMARK  232  A    between atoms: _557  and  _558
REMARK  233  A    between atoms: _557  and  _560
REMARK  234  A    between atoms: _560  and  _561
REMARK                            x       y       z     vdW  Elec       q    Type
REMARK                         _______ _______ _______ _____ _____    ______ ____
ROOT
ATOM      1  O   HOH     1      46.531  24.701  35.739  0.00  0.00    +0.000 OA
ENDROOT
TORSDOF 0
REMARK  Name = ../refined-set-2016/3iph/3iph_pocket.pdb
REMARK  234 active torsions:
REMARK  status: ('A' for Active; 'I' for Inactive)
REMARK    1  A    between atoms: _1  and  _3
REMARK    2  A    between atoms: _3  and  _4
REMARK    3  A    between atoms: _3  and  _6
REMARK    4  A    between atoms: _9  and  _11
REMARK    5  A    between atoms: _11  and  _12
REMARK    6  A    between atoms: _14  and  _16
REMARK    7  A    between atoms: _16  and  _17
REMARK    8  A    between atoms: _16  and  _19
REMARK    9  A    between atoms: _19  and  _20
REMARK   10  A    between atoms: _22  and  _24
REMARK   11  A    between atoms: _24  and  _25
REMARK   12  A    between atoms: _27  and  _29
REMARK   13  A    between atoms: _29  and  _30
REMARK   14  A    between atoms: _33  and  _35
REMARK   15  A    between atoms: _35  and  _36
REMARK   16  A    between atoms: _35  and  _38
REMARK   17  A    between atoms: _38  and  _39
REMARK   18  A    between atoms: _44  and  _45
REMARK   19  A    between atoms: _47  and  _49
REMARK   20  A    between atoms: _49  and  _50
REMARK   21  A    between atoms: _49  and  _52
REMARK   22  A    between atoms: _52  and  _53
REMARK   23  A    between atoms: _55  and  _57
REMARK   24  A    between atoms: _57  and  _58
REMARK   25  A    between atoms: _57  and  _60
REMARK   26  A    between atoms: _63  and  _65
REMARK   27  A    between atoms: _65  and  _66
REMARK   28  A    between atoms: _65  and  _68
REMARK   29  A    between atoms: _70  and  _72
REMARK   30  A    between atoms: _72  and  _73
REMARK   31  A    between atoms: _76  and  _78
REMARK   32  A    between atoms: _78  and  _79
REMARK   33  A    between atoms: _78  and  _81
REMARK   34  A    between atoms: _81  and  _82
REMARK   35  A    between atoms: _82  and  _83
REMARK   36  A    between atoms: _83  and  _84
REMARK   37  A    between atoms: _93  and  _95
REMARK   38  A    between atoms: _95  and  _96
REMARK   39  A    between atoms: _95  and  _98
REMARK   40  A    between atoms: _101  and  _103
REMARK   41  A    between atoms: _103  and  _104
REMARK   42  A    between atoms: _107  and  _109
REMARK   43  A    between atoms: _109  and  _110
REMARK   44  A    between atoms: _109  and  _112
REMARK   45  A    between atoms: _115  and  _117
REMARK   46  A    between atoms: _117  and  _118
REMARK   47  A    between atoms: _117  and  _120
REMARK   48  A    between atoms: _120  and  _121
REMARK   49  A    between atoms: _121  and  _122
REMARK   50  A    between atoms: _122  and  _123
REMARK   51  A    between atoms: _123  and  _124
REMARK   52  A    between atoms: _128  and  _130
REMARK   53  A    between atoms: _130  and  _131
REMARK   54  A    between atoms: _130  and  _133
REMARK   55  A    between atoms: _133  and  _134
REMARK   56  A    between atoms: _134  and  _135
REMARK   57  A    between atoms: _135  and  _136
REMARK   58  A    between atoms: _136  and  _137
REMARK   59  A    between atoms: _141  and  _143
REMARK   60  A    between atoms: _143  and  _144
REMARK   61  A    between atoms: _143  and  _146
REMARK   62  A    between atoms: _146  and  _147
REMARK   63  A    between atoms: _150  and  _152
REMARK   64  A    between atoms: _152  and  _153
REMARK   65  A    between atoms: _152  and  _155
REMARK   66  A    between atoms: _155  and  _156
REMARK   67  A    between atoms: _156  and  _157
REMARK   68  A    between atoms: _157  and  _158
REMARK   69  A    between atoms: _167  and  _169
REMARK   70  A    between atoms: _169  and  _170
REMARK   71  A    between atoms: _169  and  _172
REMARK   72  A    between atoms: _172  and  _173
REMARK   73  A    between atoms: _173  and  _174
REMARK   74  A    between atoms: _174  and  _175
REMARK   75  A    between atoms: _184  and  _186
REMARK   76  A    between atoms: _186  and  _187
REMARK   77  A    between atoms: _186  and  _189
REMARK   78  A    between atoms: _189  and  _190
REMARK   79  A    between atoms: _190  and  _191
REMARK   80  A    between atoms: _194  and  _196
REMARK   81  A    between atoms: _196  and  _197
REMARK   82  A    between atoms: _196  and  _199
REMARK   83  A    between atoms: _199  and  _200
REMARK   84  A    between atoms: _203  and  _205
REMARK   85  A    between atoms: _205  and  _206
REMARK   86  A    between atoms: _205  and  _208
REMARK   87  A    between atoms: _208  and  _209
REMARK   88  A    between atoms: _209  and  _210
REMARK   89  A    between atoms: _210  and  _211
REMARK   90  A    between atoms: _220  and  _222
REMARK   91  A    between atoms: _222  and  _223
REMARK   92  A    between atoms: _222  and  _225
REMARK   93  A    between atoms: _225  and  _226
REMARK   94  A    between atoms: _229  and  _231
REMARK   95  A    between atoms: _231  and  _232
REMARK   96  A    between atoms: _231  and  _234
REMARK   97  A    between atoms: _234  and  _235
REMARK   98  A    between atoms: _238  and  _240
REMARK   99  A    between atoms: _240  and  _241
REMARK  100  A    between atoms: _240  and  _243
REMARK  101  A    between atoms: _243  and  _244
REMARK  102  A    between atoms: _244  and  _245
REMARK  103  A    between atoms: _245  and  _246
REMARK  104  A    between atoms: _246  and  _247
REMARK  105  A    between atoms: _251  and  _253
REMARK  106  A    between atoms: _253  and  _254
REMARK  107  A    between atoms: _253  and  _256
REMARK  108  A    between atoms: _256  and  _257
REMARK  109  A    between atoms: _257  and  _258
REMARK  110  A    between atoms: _260  and  _262
REMARK  111  A    between atoms: _262  and  _263
REMARK  112  A    between atoms: _262  and  _265
REMARK  113  A    between atoms: _268  and  _270
REMARK  114  A    between atoms: _270  and  _271
REMARK  115  A    between atoms: _270  and  _273
REMARK  116  A    between atoms: _273  and  _274
REMARK  117  A    between atoms: _277  and  _279
REMARK  118  A    between atoms: _279  and  _280
REMARK  119  A    between atoms: _282  and  _284
REMARK  120  A    between atoms: _284  and  _285
REMARK  121  A    between atoms: _284  and  _287
REMARK  122  A    between atoms: _287  and  _288
REMARK  123  A    between atoms: _291  and  _293
REMARK  124  A    between atoms: _293  and  _294
REMARK  125  A    between atoms: _293  and  _296
REMARK  126  A    between atoms: _296  and  _297
REMARK  127  A    between atoms: _300  and  _302
REMARK  128  A    between atoms: _302  and  _303
REMARK  129  A    between atoms: _302  and  _305
REMARK  130  A    between atoms: _305  and  _306
REMARK  131  A    between atoms: _309  and  _311
REMARK  132  A    between atoms: _311  and  _312
REMARK  133  A    between atoms: _311  and  _314
REMARK  134  A    between atoms: _314  and  _315
REMARK  135  A    between atoms: _320  and  _321
REMARK  136  A    between atoms: _323  and  _325
REMARK  137  A    between atoms: _325  and  _326
REMARK  138  A    between atoms: _325  and  _328
REMARK  139  A    between atoms: _328  and  _329
REMARK  140  A    between atoms: _332  and  _334
REMARK  141  A    between atoms: _334  and  _335
REMARK  142  A    between atoms: _334  and  _337
REMARK  143  A    between atoms: _340  and  _342
REMARK  144  A    between atoms: _342  and  _343
REMARK  145  A    between atoms: _342  and  _345
REMARK  146  A    between atoms: _345  and  _346
REMARK  147  A    between atoms: _349  and  _351
REMARK  148  A    between atoms: _351  and  _352
REMARK  149  A    between atoms: _351  and  _354
REMARK  150  A    between atoms: _354  and  _355
REMARK  151  A    between atoms: _360  and  _362
REMARK  152  A    between atoms: _362  and  _363
REMARK  153  A    between atoms: _362  and  _365
REMARK  154  A    between atoms: _365  and  _366
REMARK  155  A    between atoms: _369  and  _371
REMARK  156  A    between atoms: _371  and  _372
REMARK  157  A    between atoms: _371  and  _374
REMARK  158  A    between atoms: _374  and  _375
REMARK  159  A    between atoms: _375  and  _376
REMARK  160  A    between atoms: _378  and  _380
REMARK  161  A    between atoms: _380  and  _381
REMARK  162  A    between atoms: _383  and  _385
REMARK  163  A    between atoms: _385  and  _386
REMARK  164  A    between atoms: _389  and  _391
REMARK  165  A    between atoms: _391  and  _392
REMARK  166  A    between atoms: _391  and  _394
REMARK  167  A    between atoms: _394  and  _395
REMARK  168  A    between atoms: _398  and  _400
REMARK  169  A    between atoms: _400  and  _401
REMARK  170  A    between atoms: _400  and  _403
REMARK  171  A    between atoms: _403  and  _404
REMARK  172  A    between atoms: _407  and  _409
REMARK  173  A    between atoms: _409  and  _410
REMARK  174  A    between atoms: _409  and  _412
REMARK  175  A    between atoms: _412  and  _413
REMARK  176  A    between atoms: _418  and  _420
REMARK  177  A    between atoms: _420  and  _421
REMARK  178  A    between atoms: _420  and  _423
REMARK  179  A    between atoms: _423  and  _424
REMARK  180  A    between atoms: _429  and  _431
REMARK  181  A    between atoms: _431  and  _432
REMARK  182  A    between atoms: _431  and  _434
REMARK  183  A    between atoms: _434  and  _435
REMARK  184  A    between atoms: _438  and  _440
REMARK  185  A    between atoms: _440  and  _441
REMARK  186  A    between atoms: _440  and  _443
REMARK  187  A    between atoms: _443  and  _444
REMARK  188  A    between atoms: _450  and  _451
REMARK  189  A    between atoms: _456  and  _458
REMARK  190  A    between atoms: _458  and  _459
REMARK  191  A    between atoms: _458  and  _461
REMARK  192  A    between atoms: _461  and  _462
REMARK  193  A    between atoms: _464  and  _466
REMARK  194  A    between atoms: _466  and  _467
REMARK  195  A    between atoms: _466  and  _469
REMARK  196  A    between atoms: _469  and  _470
REMARK  197  A    between atoms: _475  and  _477
REMARK  198  A    between atoms: _477  and  _478
REMARK  199  A    between atoms: _477  and  _480
REMARK  200  A    between atoms: _480  and  _481
REMARK  201  A    between atoms: _484  and  _486
REMARK  202  A    between atoms: _486  and  _487
REMARK  203  A    between atoms: _490  and  _492
REMARK  204  A    between atoms: _492  and  _493
REMARK  205  A    between atoms: _492  and  _495
REMARK  206  A    between atoms: _498  and  _500
REMARK  207  A    between atoms: _500  and  _501
REMARK  208  A    between atoms: _500  and  _503
REMARK  209  A    between atoms: _503  and  _504
REMARK  210  A    between atoms: _504  and  _505
REMARK  211  A    between atoms: _505  and  _506
REMARK  212  A    between atoms: _506  and  _507
REMARK  213  A    between atoms: _511  and  _513
REMARK  214  A    between atoms: _513  and  _514
REMARK  215  A    between atoms: _513  and  _516
REMARK  216  A    between atoms: _516  and  _517
REMARK  217  A    between atoms: _520  and  _522
REMARK  218  A    between atoms: _522  and  _523
REMARK  219  A    between atoms: _522  and  _525
REMARK  220  A    between atoms: _525  and  _526
REMARK  221  A    between atoms: _529  and  _531
REMARK  222  A    between atoms: _531  and  _532
REMARK  223  A    between atoms: _531  and  _534
REMARK  224  A    between atoms: _534  and  _535
REMARK  225  A    between atoms: _538  and  _540
REMARK  226  A    between atoms: _540  and  _541
REMARK  227  A    between atoms: _540  and  _543
REMARK  228  A    between atoms: _543  and  _544
REMARK  229  A    between atoms: _550  and  _552
REMARK  230  A    between atoms: _552  and  _553
REMARK  231  A    between atoms: _555  and  _557
REMARK  232  A    between atoms: _557  and  _558
REMARK  233  A    between atoms: _557  and  _560
REMARK  234  A    between atoms: _560  and  _561
REMARK                            x       y       z     vdW  Elec       q    Type
REMARK                         _______ _______ _______ _____ _____    ______ ____
ROOT
ATOM      1  O   HOH     1      45.186  29.530  29.088  0.00  0.00    +0.000 OA
ENDROOT
TORSDOF 0
REMARK  Name = ../refined-set-2016/3iph/3iph_pocket.pdb
REMARK  234 active torsions:
REMARK  status: ('A' for Active; 'I' for Inactive)
REMARK    1  A    between atoms: _1  and  _3
REMARK    2  A    between atoms: _3  and  _4
REMARK    3  A    between atoms: _3  and  _6
REMARK    4  A    between atoms: _9  and  _11
REMARK    5  A    between atoms: _11  and  _12
REMARK    6  A    between atoms: _14  and  _16
REMARK    7  A    between atoms: _16  and  _17
REMARK    8  A    between atoms: _16  and  _19
REMARK    9  A    between atoms: _19  and  _20
REMARK   10  A    between atoms: _22  and  _24
REMARK   11  A    between atoms: _24  and  _25
REMARK   12  A    between atoms: _27  and  _29
REMARK   13  A    between atoms: _29  and  _30
REMARK   14  A    between atoms: _33  and  _35
REMARK   15  A    between atoms: _35  and  _36
REMARK   16  A    between atoms: _35  and  _38
REMARK   17  A    between atoms: _38  and  _39
REMARK   18  A    between atoms: _44  and  _45
REMARK   19  A    between atoms: _47  and  _49
REMARK   20  A    between atoms: _49  and  _50
REMARK   21  A    between atoms: _49  and  _52
REMARK   22  A    between atoms: _52  and  _53
REMARK   23  A    between atoms: _55  and  _57
REMARK   24  A    between atoms: _57  and  _58
REMARK   25  A    between atoms: _57  and  _60
REMARK   26  A    between atoms: _63  and  _65
REMARK   27  A    between atoms: _65  and  _66
REMARK   28  A    between atoms: _65  and  _68
REMARK   29  A    between atoms: _70  and  _72
REMARK   30  A    between atoms: _72  and  _73
REMARK   31  A    between atoms: _76  and  _78
REMARK   32  A    between atoms: _78  and  _79
REMARK   33  A    between atoms: _78  and  _81
REMARK   34  A    between atoms: _81  and  _82
REMARK   35  A    between atoms: _82  and  _83
REMARK   36  A    between atoms: _83  and  _84
REMARK   37  A    between atoms: _93  and  _95
REMARK   38  A    between atoms: _95  and  _96
REMARK   39  A    between atoms: _95  and  _98
REMARK   40  A    between atoms: _101  and  _103
REMARK   41  A    between atoms: _103  and  _104
REMARK   42  A    between atoms: _107  and  _109
REMARK   43  A    between atoms: _109  and  _110
REMARK   44  A    between atoms: _109  and  _112
REMARK   45  A    between atoms: _115  and  _117
REMARK   46  A    between atoms: _117  and  _118
REMARK   47  A    between atoms: _117  and  _120
REMARK   48  A    between atoms: _120  and  _121
REMARK   49  A    between atoms: _121  and  _122
REMARK   50  A    between atoms: _122  and  _123
REMARK   51  A    between atoms: _123  and  _124
REMARK   52  A    between atoms: _128  and  _130
REMARK   53  A    between atoms: _130  and  _131
REMARK   54  A    between atoms: _130  and  _133
REMARK   55  A    between atoms: _133  and  _134
REMARK   56  A    between atoms: _134  and  _135
REMARK   57  A    between atoms: _135  and  _136
REMARK   58  A    between atoms: _136  and  _137
REMARK   59  A    between atoms: _141  and  _143
REMARK   60  A    between atoms: _143  and  _144
REMARK   61  A    between atoms: _143  and  _146
REMARK   62  A    between atoms: _146  and  _147
REMARK   63  A    between atoms: _150  and  _152
REMARK   64  A    between atoms: _152  and  _153
REMARK   65  A    between atoms: _152  and  _155
REMARK   66  A    between atoms: _155  and  _156
REMARK   67  A    between atoms: _156  and  _157
REMARK   68  A    between atoms: _157  and  _158
REMARK   69  A    between atoms: _167  and  _169
REMARK   70  A    between atoms: _169  and  _170
REMARK   71  A    between atoms: _169  and  _172
REMARK   72  A    between atoms: _172  and  _173
REMARK   73  A    between atoms: _173  and  _174
REMARK   74  A    between atoms: _174  and  _175
REMARK   75  A    between atoms: _184  and  _186
REMARK   76  A    between atoms: _186  and  _187
REMARK   77  A    between atoms: _186  and  _189
REMARK   78  A    between atoms: _189  and  _190
REMARK   79  A    between atoms: _190  and  _191
REMARK   80  A    between atoms: _194  and  _196
REMARK   81  A    between atoms: _196  and  _197
REMARK   82  A    between atoms: _196  and  _199
REMARK   83  A    between atoms: _199  and  _200
REMARK   84  A    between atoms: _203  and  _205
REMARK   85  A    between atoms: _205  and  _206
REMARK   86  A    between atoms: _205  and  _208
REMARK   87  A    between atoms: _208  and  _209
REMARK   88  A    between atoms: _209  and  _210
REMARK   89  A    between atoms: _210  and  _211
REMARK   90  A    between atoms: _220  and  _222
REMARK   91  A    between atoms: _222  and  _223
REMARK   92  A    between atoms: _222  and  _225
REMARK   93  A    between atoms: _225  and  _226
REMARK   94  A    between atoms: _229  and  _231
REMARK   95  A    between atoms: _231  and  _232
REMARK   96  A    between atoms: _231  and  _234
REMARK   97  A    between atoms: _234  and  _235
REMARK   98  A    between atoms: _238  and  _240
REMARK   99  A    between atoms: _240  and  _241
REMARK  100  A    between atoms: _240  and  _243
REMARK  101  A    between atoms: _243  and  _244
REMARK  102  A    between atoms: _244  and  _245
REMARK  103  A    between atoms: _245  and  _246
REMARK  104  A    between atoms: _246  and  _247
REMARK  105  A    between atoms: _251  and  _253
REMARK  106  A    between atoms: _253  and  _254
REMARK  107  A    between atoms: _253  and  _256
REMARK  108  A    between atoms: _256  and  _257
REMARK  109  A    between atoms: _257  and  _258
REMARK  110  A    between atoms: _260  and  _262
REMARK  111  A    between atoms: _262  and  _263
REMARK  112  A    between atoms: _262  and  _265
REMARK  113  A    between atoms: _268  and  _270
REMARK  114  A    between atoms: _270  and  _271
REMARK  115  A    between atoms: _270  and  _273
REMARK  116  A    between atoms: _273  and  _274
REMARK  117  A    between atoms: _277  and  _279
REMARK  118  A    between atoms: _279  and  _280
REMARK  119  A    between atoms: _282  and  _284
REMARK  120  A    between atoms: _284  and  _285
REMARK  121  A    between atoms: _284  and  _287
REMARK  122  A    between atoms: _287  and  _288
REMARK  123  A    between atoms: _291  and  _293
REMARK  124  A    between atoms: _293  and  _294
REMARK  125  A    between atoms: _293  and  _296
REMARK  126  A    between atoms: _296  and  _297
REMARK  127  A    between atoms: _300  and  _302
REMARK  128  A    between atoms: _302  and  _303
REMARK  129  A    between atoms: _302  and  _305
REMARK  130  A    between atoms: _305  and  _306
REMARK  131  A    between atoms: _309  and  _311
REMARK  132  A    between atoms: _311  and  _312
REMARK  133  A    between atoms: _311  and  _314
REMARK  134  A    between atoms: _314  and  _315
REMARK  135  A    between atoms: _320  and  _321
REMARK  136  A    between atoms: _323  and  _325
REMARK  137  A    between atoms: _325  and  _326
REMARK  138  A    between atoms: _325  and  _328
REMARK  139  A    between atoms: _328  and  _329
REMARK  140  A    between atoms: _332  and  _334
REMARK  141  A    between atoms: _334  and  _335
REMARK  142  A    between atoms: _334  and  _337
REMARK  143  A    between atoms: _340  and  _342
REMARK  144  A    between atoms: _342  and  _343
REMARK  145  A    between atoms: _342  and  _345
REMARK  146  A    between atoms: _345  and  _346
REMARK  147  A    between atoms: _349  and  _351
REMARK  148  A    between atoms: _351  and  _352
REMARK  149  A    between atoms: _351  and  _354
REMARK  150  A    between atoms: _354  and  _355
REMARK  151  A    between atoms: _360  and  _362
REMARK  152  A    between atoms: _362  and  _363
REMARK  153  A    between atoms: _362  and  _365
REMARK  154  A    between atoms: _365  and  _366
REMARK  155  A    between atoms: _369  and  _371
REMARK  156  A    between atoms: _371  and  _372
REMARK  157  A    between atoms: _371  and  _374
REMARK  158  A    between atoms: _374  and  _375
REMARK  159  A    between atoms: _375  and  _376
REMARK  160  A    between atoms: _378  and  _380
REMARK  161  A    between atoms: _380  and  _381
REMARK  162  A    between atoms: _383  and  _385
REMARK  163  A    between atoms: _385  and  _386
REMARK  164  A    between atoms: _389  and  _391
REMARK  165  A    between atoms: _391  and  _392
REMARK  166  A    between atoms: _391  and  _394
REMARK  167  A    between atoms: _394  and  _395
REMARK  168  A    between atoms: _398  and  _400
REMARK  169  A    between atoms: _400  and  _401
REMARK  170  A    between atoms: _400  and  _403
REMARK  171  A    between atoms: _403  and  _404
REMARK  172  A    between atoms: _407  and  _409
REMARK  173  A    between atoms: _409  and  _410
REMARK  174  A    between atoms: _409  and  _412
REMARK  175  A    between atoms: _412  and  _413
REMARK  176  A    between atoms: _418  and  _420
REMARK  177  A    between atoms: _420  and  _421
REMARK  178  A    between atoms: _420  and  _423
REMARK  179  A    between atoms: _423  and  _424
REMARK  180  A    between atoms: _429  and  _431
REMARK  181  A    between atoms: _431  and  _432
REMARK  182  A    between atoms: _431  and  _434
REMARK  183  A    between atoms: _434  and  _435
REMARK  184  A    between atoms: _438  and  _440
REMARK  185  A    between atoms: _440  and  _441
REMARK  186  A    between atoms: _440  and  _443
REMARK  187  A    between atoms: _443  and  _444
REMARK  188  A    between atoms: _450  and  _451
REMARK  189  A    between atoms: _456  and  _458
REMARK  190  A    between atoms: _458  and  _459
REMARK  191  A    between atoms: _458  and  _461
REMARK  192  A    between atoms: _461  and  _462
REMARK  193  A    between atoms: _464  and  _466
REMARK  194  A    between atoms: _466  and  _467
REMARK  195  A    between atoms: _466  and  _469
REMARK  196  A    between atoms: _469  and  _470
REMARK  197  A    between atoms: _475  and  _477
REMARK  198  A    between atoms: _477  and  _478
REMARK  199  A    between atoms: _477  and  _480
REMARK  200  A    between atoms: _480  and  _481
REMARK  201  A    between atoms: _484  and  _486
REMARK  202  A    between atoms: _486  and  _487
REMARK  203  A    between atoms: _490  and  _492
REMARK  204  A    between atoms: _492  and  _493
REMARK  205  A    between atoms: _492  and  _495
REMARK  206  A    between atoms: _498  and  _500
REMARK  207  A    between atoms: _500  and  _501
REMARK  208  A    between atoms: _500  and  _503
REMARK  209  A    between atoms: _503  and  _504
REMARK  210  A    between atoms: _504  and  _505
REMARK  211  A    between atoms: _505  and  _506
REMARK  212  A    between atoms: _506  and  _507
REMARK  213  A    between atoms: _511  and  _513
REMARK  214  A    between atoms: _513  and  _514
REMARK  215  A    between atoms: _513  and  _516
REMARK  216  A    between atoms: _516  and  _517
REMARK  217  A    between atoms: _520  and  _522
REMARK  218  A    between atoms: _522  and  _523
REMARK  219  A    between atoms: _522  and  _525
REMARK  220  A    between atoms: _525  and  _526
REMARK  221  A    between atoms: _529  and  _531
REMARK  222  A    between atoms: _531  and  _532
REMARK  223  A    between atoms: _531  and  _534
REMARK  224  A    between atoms: _534  and  _535
REMARK  225  A    between atoms: _538  and  _540
REMARK  226  A    between atoms: _540  and  _541
REMARK  227  A    between atoms: _540  and  _543
REMARK  228  A    between atoms: _543  and  _544
REMARK  229  A    between atoms: _550  and  _552
REMARK  230  A    between atoms: _552  and  _553
REMARK  231  A    between atoms: _555  and  _557
REMARK  232  A    between atoms: _557  and  _558
REMARK  233  A    between atoms: _557  and  _560
REMARK  234  A    between atoms: _560  and  _561
REMARK                            x       y       z     vdW  Elec       q    Type
REMARK                         _______ _______ _______ _____ _____    ______ ____
ROOT
ATOM      1  O   HOH     1      45.633  39.624  39.476  0.00  0.00    +0.000 OA
ENDROOT
TORSDOF 0
REMARK  Name = ../refined-set-2016/3iph/3iph_pocket.pdb
REMARK  234 active torsions:
REMARK  status: ('A' for Active; 'I' for Inactive)
REMARK    1  A    between atoms: _1  and  _3
REMARK    2  A    between atoms: _3  and  _4
REMARK    3  A    between atoms: _3  and  _6
REMARK    4  A    between atoms: _9  and  _11
REMARK    5  A    between atoms: _11  and  _12
REMARK    6  A    between atoms: _14  and  _16
REMARK    7  A    between atoms: _16  and  _17
REMARK    8  A    between atoms: _16  and  _19
REMARK    9  A    between atoms: _19  and  _20
REMARK   10  A    between atoms: _22  and  _24
REMARK   11  A    between atoms: _24  and  _25
REMARK   12  A    between atoms: _27  and  _29
REMARK   13  A    between atoms: _29  and  _30
REMARK   14  A    between atoms: _33  and  _35
REMARK   15  A    between atoms: _35  and  _36
REMARK   16  A    between atoms: _35  and  _38
REMARK   17  A    between atoms: _38  and  _39
REMARK   18  A    between atoms: _44  and  _45
REMARK   19  A    between atoms: _47  and  _49
REMARK   20  A    between atoms: _49  and  _50
REMARK   21  A    between atoms: _49  and  _52
REMARK   22  A    between atoms: _52  and  _53
REMARK   23  A    between atoms: _55  and  _57
REMARK   24  A    between atoms: _57  and  _58
REMARK   25  A    between atoms: _57  and  _60
REMARK   26  A    between atoms: _63  and  _65
REMARK   27  A    between atoms: _65  and  _66
REMARK   28  A    between atoms: _65  and  _68
REMARK   29  A    between atoms: _70  and  _72
REMARK   30  A    between atoms: _72  and  _73
REMARK   31  A    between atoms: _76  and  _78
REMARK   32  A    between atoms: _78  and  _79
REMARK   33  A    between atoms: _78  and  _81
REMARK   34  A    between atoms: _81  and  _82
REMARK   35  A    between atoms: _82  and  _83
REMARK   36  A    between atoms: _83  and  _84
REMARK   37  A    between atoms: _93  and  _95
REMARK   38  A    between atoms: _95  and  _96
REMARK   39  A    between atoms: _95  and  _98
REMARK   40  A    between atoms: _101  and  _103
REMARK   41  A    between atoms: _103  and  _104
REMARK   42  A    between atoms: _107  and  _109
REMARK   43  A    between atoms: _109  and  _110
REMARK   44  A    between atoms: _109  and  _112
REMARK   45  A    between atoms: _115  and  _117
REMARK   46  A    between atoms: _117  and  _118
REMARK   47  A    between atoms: _117  and  _120
REMARK   48  A    between atoms: _120  and  _121
REMARK   49  A    between atoms: _121  and  _122
REMARK   50  A    between atoms: _122  and  _123
REMARK   51  A    between atoms: _123  and  _124
REMARK   52  A    between atoms: _128  and  _130
REMARK   53  A    between atoms: _130  and  _131
REMARK   54  A    between atoms: _130  and  _133
REMARK   55  A    between atoms: _133  and  _134
REMARK   56  A    between atoms: _134  and  _135
REMARK   57  A    between atoms: _135  and  _136
REMARK   58  A    between atoms: _136  and  _137
REMARK   59  A    between atoms: _141  and  _143
REMARK   60  A    between atoms: _143  and  _144
REMARK   61  A    between atoms: _143  and  _146
REMARK   62  A    between atoms: _146  and  _147
REMARK   63  A    between atoms: _150  and  _152
REMARK   64  A    between atoms: _152  and  _153
REMARK   65  A    between atoms: _152  and  _155
REMARK   66  A    between atoms: _155  and  _156
REMARK   67  A    between atoms: _156  and  _157
REMARK   68  A    between atoms: _157  and  _158
REMARK   69  A    between atoms: _167  and  _169
REMARK   70  A    between atoms: _169  and  _170
REMARK   71  A    between atoms: _169  and  _172
REMARK   72  A    between atoms: _172  and  _173
REMARK   73  A    between atoms: _173  and  _174
REMARK   74  A    between atoms: _174  and  _175
REMARK   75  A    between atoms: _184  and  _186
REMARK   76  A    between atoms: _186  and  _187
REMARK   77  A    between atoms: _186  and  _189
REMARK   78  A    between atoms: _189  and  _190
REMARK   79  A    between atoms: _190  and  _191
REMARK   80  A    between atoms: _194  and  _196
REMARK   81  A    between atoms: _196  and  _197
REMARK   82  A    between atoms: _196  and  _199
REMARK   83  A    between atoms: _199  and  _200
REMARK   84  A    between atoms: _203  and  _205
REMARK   85  A    between atoms: _205  and  _206
REMARK   86  A    between atoms: _205  and  _208
REMARK   87  A    between atoms: _208  and  _209
REMARK   88  A    between atoms: _209  and  _210
REMARK   89  A    between atoms: _210  and  _211
REMARK   90  A    between atoms: _220  and  _222
REMARK   91  A    between atoms: _222  and  _223
REMARK   92  A    between atoms: _222  and  _225
REMARK   93  A    between atoms: _225  and  _226
REMARK   94  A    between atoms: _229  and  _231
REMARK   95  A    between atoms: _231  and  _232
REMARK   96  A    between atoms: _231  and  _234
REMARK   97  A    between atoms: _234  and  _235
REMARK   98  A    between atoms: _238  and  _240
REMARK   99  A    between atoms: _240  and  _241
REMARK  100  A    between atoms: _240  and  _243
REMARK  101  A    between atoms: _243  and  _244
REMARK  102  A    between atoms: _244  and  _245
REMARK  103  A    between atoms: _245  and  _246
REMARK  104  A    between atoms: _246  and  _247
REMARK  105  A    between atoms: _251  and  _253
REMARK  106  A    between atoms: _253  and  _254
REMARK  107  A    between atoms: _253  and  _256
REMARK  108  A    between atoms: _256  and  _257
REMARK  109  A    between atoms: _257  and  _258
REMARK  110  A    between atoms: _260  and  _262
REMARK  111  A    between atoms: _262  and  _263
REMARK  112  A    between atoms: _262  and  _265
REMARK  113  A    between atoms: _268  and  _270
REMARK  114  A    between atoms: _270  and  _271
REMARK  115  A    between atoms: _270  and  _273
REMARK  116  A    between atoms: _273  and  _274
REMARK  117  A    between atoms: _277  and  _279
REMARK  118  A    between atoms: _279  and  _280
REMARK  119  A    between atoms: _282  and  _284
REMARK  120  A    between atoms: _284  and  _285
REMARK  121  A    between atoms: _284  and  _287
REMARK  122  A    between atoms: _287  and  _288
REMARK  123  A    between atoms: _291  and  _293
REMARK  124  A    between atoms: _293  and  _294
REMARK  125  A    between atoms: _293  and  _296
REMARK  126  A    between atoms: _296  and  _297
REMARK  127  A    between atoms: _300  and  _302
REMARK  128  A    between atoms: _302  and  _303
REMARK  129  A    between atoms: _302  and  _305
REMARK  130  A    between atoms: _305  and  _306
REMARK  131  A    between atoms: _309  and  _311
REMARK  132  A    between atoms: _311  and  _312
REMARK  133  A    between atoms: _311  and  _314
REMARK  134  A    between atoms: _314  and  _315
REMARK  135  A    between atoms: _320  and  _321
REMARK  136  A    between atoms: _323  and  _325
REMARK  137  A    between atoms: _325  and  _326
REMARK  138  A    between atoms: _325  and  _328
REMARK  139  A    between atoms: _328  and  _329
REMARK  140  A    between atoms: _332  and  _334
REMARK  141  A    between atoms: _334  and  _335
REMARK  142  A    between atoms: _334  and  _337
REMARK  143  A    between atoms: _340  and  _342
REMARK  144  A    between atoms: _342  and  _343
REMARK  145  A    between atoms: _342  and  _345
REMARK  146  A    between atoms: _345  and  _346
REMARK  147  A    between atoms: _349  and  _351
REMARK  148  A    between atoms: _351  and  _352
REMARK  149  A    between atoms: _351  and  _354
REMARK  150  A    between atoms: _354  and  _355
REMARK  151  A    between atoms: _360  and  _362
REMARK  152  A    between atoms: _362  and  _363
REMARK  153  A    between atoms: _362  and  _365
REMARK  154  A    between atoms: _365  and  _366
REMARK  155  A    between atoms: _369  and  _371
REMARK  156  A    between atoms: _371  and  _372
REMARK  157  A    between atoms: _371  and  _374
REMARK  158  A    between atoms: _374  and  _375
REMARK  159  A    between atoms: _375  and  _376
REMARK  160  A    between atoms: _378  and  _380
REMARK  161  A    between atoms: _380  and  _381
REMARK  162  A    between atoms: _383  and  _385
REMARK  163  A    between atoms: _385  and  _386
REMARK  164  A    between atoms: _389  and  _391
REMARK  165  A    between atoms: _391  and  _392
REMARK  166  A    between atoms: _391  and  _394
REMARK  167  A    between atoms: _394  and  _395
REMARK  168  A    between atoms: _398  and  _400
REMARK  169  A    between atoms: _400  and  _401
REMARK  170  A    between atoms: _400  and  _403
REMARK  171  A    between atoms: _403  and  _404
REMARK  172  A    between atoms: _407  and  _409
REMARK  173  A    between atoms: _409  and  _410
REMARK  174  A    between atoms: _409  and  _412
REMARK  175  A    between atoms: _412  and  _413
REMARK  176  A    between atoms: _418  and  _420
REMARK  177  A    between atoms: _420  and  _421
REMARK  178  A    between atoms: _420  and  _423
REMARK  179  A    between atoms: _423  and  _424
REMARK  180  A    between atoms: _429  and  _431
REMARK  181  A    between atoms: _431  and  _432
REMARK  182  A    between atoms: _431  and  _434
REMARK  183  A    between atoms: _434  and  _435
REMARK  184  A    between atoms: _438  and  _440
REMARK  185  A    between atoms: _440  and  _441
REMARK  186  A    between atoms: _440  and  _443
REMARK  187  A    between atoms: _443  and  _444
REMARK  188  A    between atoms: _450  and  _451
REMARK  189  A    between atoms: _456  and  _458
REMARK  190  A    between atoms: _458  and  _459
REMARK  191  A    between atoms: _458  and  _461
REMARK  192  A    between atoms: _461  and  _462
REMARK  193  A    between atoms: _464  and  _466
REMARK  194  A    between atoms: _466  and  _467
REMARK  195  A    between atoms: _466  and  _469
REMARK  196  A    between atoms: _469  and  _470
REMARK  197  A    between atoms: _475  and  _477
REMARK  198  A    between atoms: _477  and  _478
REMARK  199  A    between atoms: _477  and  _480
REMARK  200  A    between atoms: _480  and  _481
REMARK  201  A    between atoms: _484  and  _486
REMARK  202  A    between atoms: _486  and  _487
REMARK  203  A    between atoms: _490  and  _492
REMARK  204  A    between atoms: _492  and  _493
REMARK  205  A    between atoms: _492  and  _495
REMARK  206  A    between atoms: _498  and  _500
REMARK  207  A    between atoms: _500  and  _501
REMARK  208  A    between atoms: _500  and  _503
REMARK  209  A    between atoms: _503  and  _504
REMARK  210  A    between atoms: _504  and  _505
REMARK  211  A    between atoms: _505  and  _506
REMARK  212  A    between atoms: _506  and  _507
REMARK  213  A    between atoms: _511  and  _513
REMARK  214  A    between atoms: _513  and  _514
REMARK  215  A    between atoms: _513  and  _516
REMARK  216  A    between atoms: _516  and  _517
REMARK  217  A    between atoms: _520  and  _522
REMARK  218  A    between atoms: _522  and  _523
REMARK  219  A    between atoms: _522  and  _525
REMARK  220  A    between atoms: _525  and  _526
REMARK  221  A    between atoms: _529  and  _531
REMARK  222  A    between atoms: _531  and  _532
REMARK  223  A    between atoms: _531  and  _534
REMARK  224  A    between atoms: _534  and  _535
REMARK  225  A    between atoms: _538  and  _540
REMARK  226  A    between atoms: _540  and  _541
REMARK  227  A    between atoms: _540  and  _543
REMARK  228  A    between atoms: _543  and  _544
REMARK  229  A    between atoms: _550  and  _552
REMARK  230  A    between atoms: _552  and  _553
REMARK  231  A    between atoms: _555  and  _557
REMARK  232  A    between atoms: _557  and  _558
REMARK  233  A    between atoms: _557  and  _560
REMARK  234  A    between atoms: _560  and  _561
REMARK                            x       y       z     vdW  Elec       q    Type
REMARK                         _______ _______ _______ _____ _____    ______ ____
ROOT
ATOM      1  O   HOH     1      46.916  31.198  29.750  0.00  0.00    +0.000 OA
ENDROOT
TORSDOF 0
REMARK  Name = ../refined-set-2016/3iph/3iph_pocket.pdb
REMARK  234 active torsions:
REMARK  status: ('A' for Active; 'I' for Inactive)
REMARK    1  A    between atoms: _1  and  _3
REMARK    2  A    between atoms: _3  and  _4
REMARK    3  A    between atoms: _3  and  _6
REMARK    4  A    between atoms: _9  and  _11
REMARK    5  A    between atoms: _11  and  _12
REMARK    6  A    between atoms: _14  and  _16
REMARK    7  A    between atoms: _16  and  _17
REMARK    8  A    between atoms: _16  and  _19
REMARK    9  A    between atoms: _19  and  _20
REMARK   10  A    between atoms: _22  and  _24
REMARK   11  A    between atoms: _24  and  _25
REMARK   12  A    between atoms: _27  and  _29
REMARK   13  A    between atoms: _29  and  _30
REMARK   14  A    between atoms: _33  and  _35
REMARK   15  A    between atoms: _35  and  _36
REMARK   16  A    between atoms: _35  and  _38
REMARK   17  A    between atoms: _38  and  _39
REMARK   18  A    between atoms: _44  and  _45
REMARK   19  A    between atoms: _47  and  _49
REMARK   20  A    between atoms: _49  and  _50
REMARK   21  A    between atoms: _49  and  _52
REMARK   22  A    between atoms: _52  and  _53
REMARK   23  A    between atoms: _55  and  _57
REMARK   24  A    between atoms: _57  and  _58
REMARK   25  A    between atoms: _57  and  _60
REMARK   26  A    between atoms: _63  and  _65
REMARK   27  A    between atoms: _65  and  _66
REMARK   28  A    between atoms: _65  and  _68
REMARK   29  A    between atoms: _70  and  _72
REMARK   30  A    between atoms: _72  and  _73
REMARK   31  A    between atoms: _76  and  _78
REMARK   32  A    between atoms: _78  and  _79
REMARK   33  A    between atoms: _78  and  _81
REMARK   34  A    between atoms: _81  and  _82
REMARK   35  A    between atoms: _82  and  _83
REMARK   36  A    between atoms: _83  and  _84
REMARK   37  A    between atoms: _93  and  _95
REMARK   38  A    between atoms: _95  and  _96
REMARK   39  A    between atoms: _95  and  _98
REMARK   40  A    between atoms: _101  and  _103
REMARK   41  A    between atoms: _103  and  _104
REMARK   42  A    between atoms: _107  and  _109
REMARK   43  A    between atoms: _109  and  _110
REMARK   44  A    between atoms: _109  and  _112
REMARK   45  A    between atoms: _115  and  _117
REMARK   46  A    between atoms: _117  and  _118
REMARK   47  A    between atoms: _117  and  _120
REMARK   48  A    between atoms: _120  and  _121
REMARK   49  A    between atoms: _121  and  _122
REMARK   50  A    between atoms: _122  and  _123
REMARK   51  A    between atoms: _123  and  _124
REMARK   52  A    between atoms: _128  and  _130
REMARK   53  A    between atoms: _130  and  _131
REMARK   54  A    between atoms: _130  and  _133
REMARK   55  A    between atoms: _133  and  _134
REMARK   56  A    between atoms: _134  and  _135
REMARK   57  A    between atoms: _135  and  _136
REMARK   58  A    between atoms: _136  and  _137
REMARK   59  A    between atoms: _141  and  _143
REMARK   60  A    between atoms: _143  and  _144
REMARK   61  A    between atoms: _143  and  _146
REMARK   62  A    between atoms: _146  and  _147
REMARK   63  A    between atoms: _150  and  _152
REMARK   64  A    between atoms: _152  and  _153
REMARK   65  A    between atoms: _152  and  _155
REMARK   66  A    between atoms: _155  and  _156
REMARK   67  A    between atoms: _156  and  _157
REMARK   68  A    between atoms: _157  and  _158
REMARK   69  A    between atoms: _167  and  _169
REMARK   70  A    between atoms: _169  and  _170
REMARK   71  A    between atoms: _169  and  _172
REMARK   72  A    between atoms: _172  and  _173
REMARK   73  A    between atoms: _173  and  _174
REMARK   74  A    between atoms: _174  and  _175
REMARK   75  A    between atoms: _184  and  _186
REMARK   76  A    between atoms: _186  and  _187
REMARK   77  A    between atoms: _186  and  _189
REMARK   78  A    between atoms: _189  and  _190
REMARK   79  A    between atoms: _190  and  _191
REMARK   80  A    between atoms: _194  and  _196
REMARK   81  A    between atoms: _196  and  _197
REMARK   82  A    between atoms: _196  and  _199
REMARK   83  A    between atoms: _199  and  _200
REMARK   84  A    between atoms: _203  and  _205
REMARK   85  A    between atoms: _205  and  _206
REMARK   86  A    between atoms: _205  and  _208
REMARK   87  A    between atoms: _208  and  _209
REMARK   88  A    between atoms: _209  and  _210
REMARK   89  A    between atoms: _210  and  _211
REMARK   90  A    between atoms: _220  and  _222
REMARK   91  A    between atoms: _222  and  _223
REMARK   92  A    between atoms: _222  and  _225
REMARK   93  A    between atoms: _225  and  _226
REMARK   94  A    between atoms: _229  and  _231
REMARK   95  A    between atoms: _231  and  _232
REMARK   96  A    between atoms: _231  and  _234
REMARK   97  A    between atoms: _234  and  _235
REMARK   98  A    between atoms: _238  and  _240
REMARK   99  A    between atoms: _240  and  _241
REMARK  100  A    between atoms: _240  and  _243
REMARK  101  A    between atoms: _243  and  _244
REMARK  102  A    between atoms: _244  and  _245
REMARK  103  A    between atoms: _245  and  _246
REMARK  104  A    between atoms: _246  and  _247
REMARK  105  A    between atoms: _251  and  _253
REMARK  106  A    between atoms: _253  and  _254
REMARK  107  A    between atoms: _253  and  _256
REMARK  108  A    between atoms: _256  and  _257
REMARK  109  A    between atoms: _257  and  _258
REMARK  110  A    between atoms: _260  and  _262
REMARK  111  A    between atoms: _262  and  _263
REMARK  112  A    between atoms: _262  and  _265
REMARK  113  A    between atoms: _268  and  _270
REMARK  114  A    between atoms: _270  and  _271
REMARK  115  A    between atoms: _270  and  _273
REMARK  116  A    between atoms: _273  and  _274
REMARK  117  A    between atoms: _277  and  _279
REMARK  118  A    between atoms: _279  and  _280
REMARK  119  A    between atoms: _282  and  _284
REMARK  120  A    between atoms: _284  and  _285
REMARK  121  A    between atoms: _284  and  _287
REMARK  122  A    between atoms: _287  and  _288
REMARK  123  A    between atoms: _291  and  _293
REMARK  124  A    between atoms: _293  and  _294
REMARK  125  A    between atoms: _293  and  _296
REMARK  126  A    between atoms: _296  and  _297
REMARK  127  A    between atoms: _300  and  _302
REMARK  128  A    between atoms: _302  and  _303
REMARK  129  A    between atoms: _302  and  _305
REMARK  130  A    between atoms: _305  and  _306
REMARK  131  A    between atoms: _309  and  _311
REMARK  132  A    between atoms: _311  and  _312
REMARK  133  A    between atoms: _311  and  _314
REMARK  134  A    between atoms: _314  and  _315
REMARK  135  A    between atoms: _320  and  _321
REMARK  136  A    between atoms: _323  and  _325
REMARK  137  A    between atoms: _325  and  _326
REMARK  138  A    between atoms: _325  and  _328
REMARK  139  A    between atoms: _328  and  _329
REMARK  140  A    between atoms: _332  and  _334
REMARK  141  A    between atoms: _334  and  _335
REMARK  142  A    between atoms: _334  and  _337
REMARK  143  A    between atoms: _340  and  _342
REMARK  144  A    between atoms: _342  and  _343
REMARK  145  A    between atoms: _342  and  _345
REMARK  146  A    between atoms: _345  and  _346
REMARK  147  A    between atoms: _349  and  _351
REMARK  148  A    between atoms: _351  and  _352
REMARK  149  A    between atoms: _351  and  _354
REMARK  150  A    between atoms: _354  and  _355
REMARK  151  A    between atoms: _360  and  _362
REMARK  152  A    between atoms: _362  and  _363
REMARK  153  A    between atoms: _362  and  _365
REMARK  154  A    between atoms: _365  and  _366
REMARK  155  A    between atoms: _369  and  _371
REMARK  156  A    between atoms: _371  and  _372
REMARK  157  A    between atoms: _371  and  _374
REMARK  158  A    between atoms: _374  and  _375
REMARK  159  A    between atoms: _375  and  _376
REMARK  160  A    between atoms: _378  and  _380
REMARK  161  A    between atoms: _380  and  _381
REMARK  162  A    between atoms: _383  and  _385
REMARK  163  A    between atoms: _385  and  _386
REMARK  164  A    between atoms: _389  and  _391
REMARK  165  A    between atoms: _391  and  _392
REMARK  166  A    between atoms: _391  and  _394
REMARK  167  A    between atoms: _394  and  _395
REMARK  168  A    between atoms: _398  and  _400
REMARK  169  A    between atoms: _400  and  _401
REMARK  170  A    between atoms: _400  and  _403
REMARK  171  A    between atoms: _403  and  _404
REMARK  172  A    between atoms: _407  and  _409
REMARK  173  A    between atoms: _409  and  _410
REMARK  174  A    between atoms: _409  and  _412
REMARK  175  A    between atoms: _412  and  _413
REMARK  176  A    between atoms: _418  and  _420
REMARK  177  A    between atoms: _420  and  _421
REMARK  178  A    between atoms: _420  and  _423
REMARK  179  A    between atoms: _423  and  _424
REMARK  180  A    between atoms: _429  and  _431
REMARK  181  A    between atoms: _431  and  _432
REMARK  182  A    between atoms: _431  and  _434
REMARK  183  A    between atoms: _434  and  _435
REMARK  184  A    between atoms: _438  and  _440
REMARK  185  A    between atoms: _440  and  _441
REMARK  186  A    between atoms: _440  and  _443
REMARK  187  A    between atoms: _443  and  _444
REMARK  188  A    between atoms: _450  and  _451
REMARK  189  A    between atoms: _456  and  _458
REMARK  190  A    between atoms: _458  and  _459
REMARK  191  A    between atoms: _458  and  _461
REMARK  192  A    between atoms: _461  and  _462
REMARK  193  A    between atoms: _464  and  _466
REMARK  194  A    between atoms: _466  and  _467
REMARK  195  A    between atoms: _466  and  _469
REMARK  196  A    between atoms: _469  and  _470
REMARK  197  A    between atoms: _475  and  _477
REMARK  198  A    between atoms: _477  and  _478
REMARK  199  A    between atoms: _477  and  _480
REMARK  200  A    between atoms: _480  and  _481
REMARK  201  A    between atoms: _484  and  _486
REMARK  202  A    between atoms: _486  and  _487
REMARK  203  A    between atoms: _490  and  _492
REMARK  204  A    between atoms: _492  and  _493
REMARK  205  A    between atoms: _492  and  _495
REMARK  206  A    between atoms: _498  and  _500
REMARK  207  A    between atoms: _500  and  _501
REMARK  208  A    between atoms: _500  and  _503
REMARK  209  A    between atoms: _503  and  _504
REMARK  210  A    between atoms: _504  and  _505
REMARK  211  A    between atoms: _505  and  _506
REMARK  212  A    between atoms: _506  and  _507
REMARK  213  A    between atoms: _511  and  _513
REMARK  214  A    between atoms: _513  and  _514
REMARK  215  A    between atoms: _513  and  _516
REMARK  216  A    between atoms: _516  and  _517
REMARK  217  A    between atoms: _520  and  _522
REMARK  218  A    between atoms: _522  and  _523
REMARK  219  A    between atoms: _522  and  _525
REMARK  220  A    between atoms: _525  and  _526
REMARK  221  A    between atoms: _529  and  _531
REMARK  222  A    between atoms: _531  and  _532
REMARK  223  A    between atoms: _531  and  _534
REMARK  224  A    between atoms: _534  and  _535
REMARK  225  A    between atoms: _538  and  _540
REMARK  226  A    between atoms: _540  and  _541
REMARK  227  A    between atoms: _540  and  _543
REMARK  228  A    between atoms: _543  and  _544
REMARK  229  A    between atoms: _550  and  _552
REMARK  230  A    between atoms: _552  and  _553
REMARK  231  A    between atoms: _555  and  _557
REMARK  232  A    between atoms: _557  and  _558
REMARK  233  A    between atoms: _557  and  _560
REMARK  234  A    between atoms: _560  and  _561
REMARK                            x       y       z     vdW  Elec       q    Type
REMARK                         _______ _______ _______ _____ _____    ______ ____
ROOT
ATOM      1  O   HOH     1      50.455  32.983  28.601  0.00  0.00    +0.000 OA
ENDROOT
TORSDOF 0
REMARK  Name = ../refined-set-2016/3iph/3iph_pocket.pdb
REMARK  234 active torsions:
REMARK  status: ('A' for Active; 'I' for Inactive)
REMARK    1  A    between atoms: _1  and  _3
REMARK    2  A    between atoms: _3  and  _4
REMARK    3  A    between atoms: _3  and  _6
REMARK    4  A    between atoms: _9  and  _11
REMARK    5  A    between atoms: _11  and  _12
REMARK    6  A    between atoms: _14  and  _16
REMARK    7  A    between atoms: _16  and  _17
REMARK    8  A    between atoms: _16  and  _19
REMARK    9  A    between atoms: _19  and  _20
REMARK   10  A    between atoms: _22  and  _24
REMARK   11  A    between atoms: _24  and  _25
REMARK   12  A    between atoms: _27  and  _29
REMARK   13  A    between atoms: _29  and  _30
REMARK   14  A    between atoms: _33  and  _35
REMARK   15  A    between atoms: _35  and  _36
REMARK   16  A    between atoms: _35  and  _38
REMARK   17  A    between atoms: _38  and  _39
REMARK   18  A    between atoms: _44  and  _45
REMARK   19  A    between atoms: _47  and  _49
REMARK   20  A    between atoms: _49  and  _50
REMARK   21  A    between atoms: _49  and  _52
REMARK   22  A    between atoms: _52  and  _53
REMARK   23  A    between atoms: _55  and  _57
REMARK   24  A    between atoms: _57  and  _58
REMARK   25  A    between atoms: _57  and  _60
REMARK   26  A    between atoms: _63  and  _65
REMARK   27  A    between atoms: _65  and  _66
REMARK   28  A    between atoms: _65  and  _68
REMARK   29  A    between atoms: _70  and  _72
REMARK   30  A    between atoms: _72  and  _73
REMARK   31  A    between atoms: _76  and  _78
REMARK   32  A    between atoms: _78  and  _79
REMARK   33  A    between atoms: _78  and  _81
REMARK   34  A    between atoms: _81  and  _82
REMARK   35  A    between atoms: _82  and  _83
REMARK   36  A    between atoms: _83  and  _84
REMARK   37  A    between atoms: _93  and  _95
REMARK   38  A    between atoms: _95  and  _96
REMARK   39  A    between atoms: _95  and  _98
REMARK   40  A    between atoms: _101  and  _103
REMARK   41  A    between atoms: _103  and  _104
REMARK   42  A    between atoms: _107  and  _109
REMARK   43  A    between atoms: _109  and  _110
REMARK   44  A    between atoms: _109  and  _112
REMARK   45  A    between atoms: _115  and  _117
REMARK   46  A    between atoms: _117  and  _118
REMARK   47  A    between atoms: _117  and  _120
REMARK   48  A    between atoms: _120  and  _121
REMARK   49  A    between atoms: _121  and  _122
REMARK   50  A    between atoms: _122  and  _123
REMARK   51  A    between atoms: _123  and  _124
REMARK   52  A    between atoms: _128  and  _130
REMARK   53  A    between atoms: _130  and  _131
REMARK   54  A    between atoms: _130  and  _133
REMARK   55  A    between atoms: _133  and  _134
REMARK   56  A    between atoms: _134  and  _135
REMARK   57  A    between atoms: _135  and  _136
REMARK   58  A    between atoms: _136  and  _137
REMARK   59  A    between atoms: _141  and  _143
REMARK   60  A    between atoms: _143  and  _144
REMARK   61  A    between atoms: _143  and  _146
REMARK   62  A    between atoms: _146  and  _147
REMARK   63  A    between atoms: _150  and  _152
REMARK   64  A    between atoms: _152  and  _153
REMARK   65  A    between atoms: _152  and  _155
REMARK   66  A    between atoms: _155  and  _156
REMARK   67  A    between atoms: _156  and  _157
REMARK   68  A    between atoms: _157  and  _158
REMARK   69  A    between atoms: _167  and  _169
REMARK   70  A    between atoms: _169  and  _170
REMARK   71  A    between atoms: _169  and  _172
REMARK   72  A    between atoms: _172  and  _173
REMARK   73  A    between atoms: _173  and  _174
REMARK   74  A    between atoms: _174  and  _175
REMARK   75  A    between atoms: _184  and  _186
REMARK   76  A    between atoms: _186  and  _187
REMARK   77  A    between atoms: _186  and  _189
REMARK   78  A    between atoms: _189  and  _190
REMARK   79  A    between atoms: _190  and  _191
REMARK   80  A    between atoms: _194  and  _196
REMARK   81  A    between atoms: _196  and  _197
REMARK   82  A    between atoms: _196  and  _199
REMARK   83  A    between atoms: _199  and  _200
REMARK   84  A    between atoms: _203  and  _205
REMARK   85  A    between atoms: _205  and  _206
REMARK   86  A    between atoms: _205  and  _208
REMARK   87  A    between atoms: _208  and  _209
REMARK   88  A    between atoms: _209  and  _210
REMARK   89  A    between atoms: _210  and  _211
REMARK   90  A    between atoms: _220  and  _222
REMARK   91  A    between atoms: _222  and  _223
REMARK   92  A    between atoms: _222  and  _225
REMARK   93  A    between atoms: _225  and  _226
REMARK   94  A    between atoms: _229  and  _231
REMARK   95  A    between atoms: _231  and  _232
REMARK   96  A    between atoms: _231  and  _234
REMARK   97  A    between atoms: _234  and  _235
REMARK   98  A    between atoms: _238  and  _240
REMARK   99  A    between atoms: _240  and  _241
REMARK  100  A    between atoms: _240  and  _243
REMARK  101  A    between atoms: _243  and  _244
REMARK  102  A    between atoms: _244  and  _245
REMARK  103  A    between atoms: _245  and  _246
REMARK  104  A    between atoms: _246  and  _247
REMARK  105  A    between atoms: _251  and  _253
REMARK  106  A    between atoms: _253  and  _254
REMARK  107  A    between atoms: _253  and  _256
REMARK  108  A    between atoms: _256  and  _257
REMARK  109  A    between atoms: _257  and  _258
REMARK  110  A    between atoms: _260  and  _262
REMARK  111  A    between atoms: _262  and  _263
REMARK  112  A    between atoms: _262  and  _265
REMARK  113  A    between atoms: _268  and  _270
REMARK  114  A    between atoms: _270  and  _271
REMARK  115  A    between atoms: _270  and  _273
REMARK  116  A    between atoms: _273  and  _274
REMARK  117  A    between atoms: _277  and  _279
REMARK  118  A    between atoms: _279  and  _280
REMARK  119  A    between atoms: _282  and  _284
REMARK  120  A    between atoms: _284  and  _285
REMARK  121  A    between atoms: _284  and  _287
REMARK  122  A    between atoms: _287  and  _288
REMARK  123  A    between atoms: _291  and  _293
REMARK  124  A    between atoms: _293  and  _294
REMARK  125  A    between atoms: _293  and  _296
REMARK  126  A    between atoms: _296  and  _297
REMARK  127  A    between atoms: _300  and  _302
REMARK  128  A    between atoms: _302  and  _303
REMARK  129  A    between atoms: _302  and  _305
REMARK  130  A    between atoms: _305  and  _306
REMARK  131  A    between atoms: _309  and  _311
REMARK  132  A    between atoms: _311  and  _312
REMARK  133  A    between atoms: _311  and  _314
REMARK  134  A    between atoms: _314  and  _315
REMARK  135  A    between atoms: _320  and  _321
REMARK  136  A    between atoms: _323  and  _325
REMARK  137  A    between atoms: _325  and  _326
REMARK  138  A    between atoms: _325  and  _328
REMARK  139  A    between atoms: _328  and  _329
REMARK  140  A    between atoms: _332  and  _334
REMARK  141  A    between atoms: _334  and  _335
REMARK  142  A    between atoms: _334  and  _337
REMARK  143  A    between atoms: _340  and  _342
REMARK  144  A    between atoms: _342  and  _343
REMARK  145  A    between atoms: _342  and  _345
REMARK  146  A    between atoms: _345  and  _346
REMARK  147  A    between atoms: _349  and  _351
REMARK  148  A    between atoms: _351  and  _352
REMARK  149  A    between atoms: _351  and  _354
REMARK  150  A    between atoms: _354  and  _355
REMARK  151  A    between atoms: _360  and  _362
REMARK  152  A    between atoms: _362  and  _363
REMARK  153  A    between atoms: _362  and  _365
REMARK  154  A    between atoms: _365  and  _366
REMARK  155  A    between atoms: _369  and  _371
REMARK  156  A    between atoms: _371  and  _372
REMARK  157  A    between atoms: _371  and  _374
REMARK  158  A    between atoms: _374  and  _375
REMARK  159  A    between atoms: _375  and  _376
REMARK  160  A    between atoms: _378  and  _380
REMARK  161  A    between atoms: _380  and  _381
REMARK  162  A    between atoms: _383  and  _385
REMARK  163  A    between atoms: _385  and  _386
REMARK  164  A    between atoms: _389  and  _391
REMARK  165  A    between atoms: _391  and  _392
REMARK  166  A    between atoms: _391  and  _394
REMARK  167  A    between atoms: _394  and  _395
REMARK  168  A    between atoms: _398  and  _400
REMARK  169  A    between atoms: _400  and  _401
REMARK  170  A    between atoms: _400  and  _403
REMARK  171  A    between atoms: _403  and  _404
REMARK  172  A    between atoms: _407  and  _409
REMARK  173  A    between atoms: _409  and  _410
REMARK  174  A    between atoms: _409  and  _412
REMARK  175  A    between atoms: _412  and  _413
REMARK  176  A    between atoms: _418  and  _420
REMARK  177  A    between atoms: _420  and  _421
REMARK  178  A    between atoms: _420  and  _423
REMARK  179  A    between atoms: _423  and  _424
REMARK  180  A    between atoms: _429  and  _431
REMARK  181  A    between atoms: _431  and  _432
REMARK  182  A    between atoms: _431  and  _434
REMARK  183  A    between atoms: _434  and  _435
REMARK  184  A    between atoms: _438  and  _440
REMARK  185  A    between atoms: _440  and  _441
REMARK  186  A    between atoms: _440  and  _443
REMARK  187  A    between atoms: _443  and  _444
REMARK  188  A    between atoms: _450  and  _451
REMARK  189  A    between atoms: _456  and  _458
REMARK  190  A    between atoms: _458  and  _459
REMARK  191  A    between atoms: _458  and  _461
REMARK  192  A    between atoms: _461  and  _462
REMARK  193  A    between atoms: _464  and  _466
REMARK  194  A    between atoms: _466  and  _467
REMARK  195  A    between atoms: _466  and  _469
REMARK  196  A    between atoms: _469  and  _470
REMARK  197  A    between atoms: _475  and  _477
REMARK  198  A    between atoms: _477  and  _478
REMARK  199  A    between atoms: _477  and  _480
REMARK  200  A    between atoms: _480  and  _481
REMARK  201  A    between atoms: _484  and  _486
REMARK  202  A    between atoms: _486  and  _487
REMARK  203  A    between atoms: _490  and  _492
REMARK  204  A    between atoms: _492  and  _493
REMARK  205  A    between atoms: _492  and  _495
REMARK  206  A    between atoms: _498  and  _500
REMARK  207  A    between atoms: _500  and  _501
REMARK  208  A    between atoms: _500  and  _503
REMARK  209  A    between atoms: _503  and  _504
REMARK  210  A    between atoms: _504  and  _505
REMARK  211  A    between atoms: _505  and  _506
REMARK  212  A    between atoms: _506  and  _507
REMARK  213  A    between atoms: _511  and  _513
REMARK  214  A    between atoms: _513  and  _514
REMARK  215  A    between atoms: _513  and  _516
REMARK  216  A    between atoms: _516  and  _517
REMARK  217  A    between atoms: _520  and  _522
REMARK  218  A    between atoms: _522  and  _523
REMARK  219  A    between atoms: _522  and  _525
REMARK  220  A    between atoms: _525  and  _526
REMARK  221  A    between atoms: _529  and  _531
REMARK  222  A    between atoms: _531  and  _532
REMARK  223  A    between atoms: _531  and  _534
REMARK  224  A    between atoms: _534  and  _535
REMARK  225  A    between atoms: _538  and  _540
REMARK  226  A    between atoms: _540  and  _541
REMARK  227  A    between atoms: _540  and  _543
REMARK  228  A    between atoms: _543  and  _544
REMARK  229  A    between atoms: _550  and  _552
REMARK  230  A    between atoms: _552  and  _553
REMARK  231  A    between atoms: _555  and  _557
REMARK  232  A    between atoms: _557  and  _558
REMARK  233  A    between atoms: _557  and  _560
REMARK  234  A    between atoms: _560  and  _561
REMARK                            x       y       z     vdW  Elec       q    Type
REMARK                         _______ _______ _______ _____ _____    ______ ____
ROOT
ATOM      1  O   HOH     1      47.090  41.726  31.327  0.00  0.00    +0.000 OA
ENDROOT
TORSDOF 0
REMARK  Name = ../refined-set-2016/3iph/3iph_pocket.pdb
REMARK  234 active torsions:
REMARK  status: ('A' for Active; 'I' for Inactive)
REMARK    1  A    between atoms: _1  and  _3
REMARK    2  A    between atoms: _3  and  _4
REMARK    3  A    between atoms: _3  and  _6
REMARK    4  A    between atoms: _9  and  _11
REMARK    5  A    between atoms: _11  and  _12
REMARK    6  A    between atoms: _14  and  _16
REMARK    7  A    between atoms: _16  and  _17
REMARK    8  A    between atoms: _16  and  _19
REMARK    9  A    between atoms: _19  and  _20
REMARK   10  A    between atoms: _22  and  _24
REMARK   11  A    between atoms: _24  and  _25
REMARK   12  A    between atoms: _27  and  _29
REMARK   13  A    between atoms: _29  and  _30
REMARK   14  A    between atoms: _33  and  _35
REMARK   15  A    between atoms: _35  and  _36
REMARK   16  A    between atoms: _35  and  _38
REMARK   17  A    between atoms: _38  and  _39
REMARK   18  A    between atoms: _44  and  _45
REMARK   19  A    between atoms: _47  and  _49
REMARK   20  A    between atoms: _49  and  _50
REMARK   21  A    between atoms: _49  and  _52
REMARK   22  A    between atoms: _52  and  _53
REMARK   23  A    between atoms: _55  and  _57
REMARK   24  A    between atoms: _57  and  _58
REMARK   25  A    between atoms: _57  and  _60
REMARK   26  A    between atoms: _63  and  _65
REMARK   27  A    between atoms: _65  and  _66
REMARK   28  A    between atoms: _65  and  _68
REMARK   29  A    between atoms: _70  and  _72
REMARK   30  A    between atoms: _72  and  _73
REMARK   31  A    between atoms: _76  and  _78
REMARK   32  A    between atoms: _78  and  _79
REMARK   33  A    between atoms: _78  and  _81
REMARK   34  A    between atoms: _81  and  _82
REMARK   35  A    between atoms: _82  and  _83
REMARK   36  A    between atoms: _83  and  _84
REMARK   37  A    between atoms: _93  and  _95
REMARK   38  A    between atoms: _95  and  _96
REMARK   39  A    between atoms: _95  and  _98
REMARK   40  A    between atoms: _101  and  _103
REMARK   41  A    between atoms: _103  and  _104
REMARK   42  A    between atoms: _107  and  _109
REMARK   43  A    between atoms: _109  and  _110
REMARK   44  A    between atoms: _109  and  _112
REMARK   45  A    between atoms: _115  and  _117
REMARK   46  A    between atoms: _117  and  _118
REMARK   47  A    between atoms: _117  and  _120
REMARK   48  A    between atoms: _120  and  _121
REMARK   49  A    between atoms: _121  and  _122
REMARK   50  A    between atoms: _122  and  _123
REMARK   51  A    between atoms: _123  and  _124
REMARK   52  A    between atoms: _128  and  _130
REMARK   53  A    between atoms: _130  and  _131
REMARK   54  A    between atoms: _130  and  _133
REMARK   55  A    between atoms: _133  and  _134
REMARK   56  A    between atoms: _134  and  _135
REMARK   57  A    between atoms: _135  and  _136
REMARK   58  A    between atoms: _136  and  _137
REMARK   59  A    between atoms: _141  and  _143
REMARK   60  A    between atoms: _143  and  _144
REMARK   61  A    between atoms: _143  and  _146
REMARK   62  A    between atoms: _146  and  _147
REMARK   63  A    between atoms: _150  and  _152
REMARK   64  A    between atoms: _152  and  _153
REMARK   65  A    between atoms: _152  and  _155
REMARK   66  A    between atoms: _155  and  _156
REMARK   67  A    between atoms: _156  and  _157
REMARK   68  A    between atoms: _157  and  _158
REMARK   69  A    between atoms: _167  and  _169
REMARK   70  A    between atoms: _169  and  _170
REMARK   71  A    between atoms: _169  and  _172
REMARK   72  A    between atoms: _172  and  _173
REMARK   73  A    between atoms: _173  and  _174
REMARK   74  A    between atoms: _174  and  _175
REMARK   75  A    between atoms: _184  and  _186
REMARK   76  A    between atoms: _186  and  _187
REMARK   77  A    between atoms: _186  and  _189
REMARK   78  A    between atoms: _189  and  _190
REMARK   79  A    between atoms: _190  and  _191
REMARK   80  A    between atoms: _194  and  _196
REMARK   81  A    between atoms: _196  and  _197
REMARK   82  A    between atoms: _196  and  _199
REMARK   83  A    between atoms: _199  and  _200
REMARK   84  A    between atoms: _203  and  _205
REMARK   85  A    between atoms: _205  and  _206
REMARK   86  A    between atoms: _205  and  _208
REMARK   87  A    between atoms: _208  and  _209
REMARK   88  A    between atoms: _209  and  _210
REMARK   89  A    between atoms: _210  and  _211
REMARK   90  A    between atoms: _220  and  _222
REMARK   91  A    between atoms: _222  and  _223
REMARK   92  A    between atoms: _222  and  _225
REMARK   93  A    between atoms: _225  and  _226
REMARK   94  A    between atoms: _229  and  _231
REMARK   95  A    between atoms: _231  and  _232
REMARK   96  A    between atoms: _231  and  _234
REMARK   97  A    between atoms: _234  and  _235
REMARK   98  A    between atoms: _238  and  _240
REMARK   99  A    between atoms: _240  and  _241
REMARK  100  A    between atoms: _240  and  _243
REMARK  101  A    between atoms: _243  and  _244
REMARK  102  A    between atoms: _244  and  _245
REMARK  103  A    between atoms: _245  and  _246
REMARK  104  A    between atoms: _246  and  _247
REMARK  105  A    between atoms: _251  and  _253
REMARK  106  A    between atoms: _253  and  _254
REMARK  107  A    between atoms: _253  and  _256
REMARK  108  A    between atoms: _256  and  _257
REMARK  109  A    between atoms: _257  and  _258
REMARK  110  A    between atoms: _260  and  _262
REMARK  111  A    between atoms: _262  and  _263
REMARK  112  A    between atoms: _262  and  _265
REMARK  113  A    between atoms: _268  and  _270
REMARK  114  A    between atoms: _270  and  _271
REMARK  115  A    between atoms: _270  and  _273
REMARK  116  A    between atoms: _273  and  _274
REMARK  117  A    between atoms: _277  and  _279
REMARK  118  A    between atoms: _279  and  _280
REMARK  119  A    between atoms: _282  and  _284
REMARK  120  A    between atoms: _284  and  _285
REMARK  121  A    between atoms: _284  and  _287
REMARK  122  A    between atoms: _287  and  _288
REMARK  123  A    between atoms: _291  and  _293
REMARK  124  A    between atoms: _293  and  _294
REMARK  125  A    between atoms: _293  and  _296
REMARK  126  A    between atoms: _296  and  _297
REMARK  127  A    between atoms: _300  and  _302
REMARK  128  A    between atoms: _302  and  _303
REMARK  129  A    between atoms: _302  and  _305
REMARK  130  A    between atoms: _305  and  _306
REMARK  131  A    between atoms: _309  and  _311
REMARK  132  A    between atoms: _311  and  _312
REMARK  133  A    between atoms: _311  and  _314
REMARK  134  A    between atoms: _314  and  _315
REMARK  135  A    between atoms: _320  and  _321
REMARK  136  A    between atoms: _323  and  _325
REMARK  137  A    between atoms: _325  and  _326
REMARK  138  A    between atoms: _325  and  _328
REMARK  139  A    between atoms: _328  and  _329
REMARK  140  A    between atoms: _332  and  _334
REMARK  141  A    between atoms: _334  and  _335
REMARK  142  A    between atoms: _334  and  _337
REMARK  143  A    between atoms: _340  and  _342
REMARK  144  A    between atoms: _342  and  _343
REMARK  145  A    between atoms: _342  and  _345
REMARK  146  A    between atoms: _345  and  _346
REMARK  147  A    between atoms: _349  and  _351
REMARK  148  A    between atoms: _351  and  _352
REMARK  149  A    between atoms: _351  and  _354
REMARK  150  A    between atoms: _354  and  _355
REMARK  151  A    between atoms: _360  and  _362
REMARK  152  A    between atoms: _362  and  _363
REMARK  153  A    between atoms: _362  and  _365
REMARK  154  A    between atoms: _365  and  _366
REMARK  155  A    between atoms: _369  and  _371
REMARK  156  A    between atoms: _371  and  _372
REMARK  157  A    between atoms: _371  and  _374
REMARK  158  A    between atoms: _374  and  _375
REMARK  159  A    between atoms: _375  and  _376
REMARK  160  A    between atoms: _378  and  _380
REMARK  161  A    between atoms: _380  and  _381
REMARK  162  A    between atoms: _383  and  _385
REMARK  163  A    between atoms: _385  and  _386
REMARK  164  A    between atoms: _389  and  _391
REMARK  165  A    between atoms: _391  and  _392
REMARK  166  A    between atoms: _391  and  _394
REMARK  167  A    between atoms: _394  and  _395
REMARK  168  A    between atoms: _398  and  _400
REMARK  169  A    between atoms: _400  and  _401
REMARK  170  A    between atoms: _400  and  _403
REMARK  171  A    between atoms: _403  and  _404
REMARK  172  A    between atoms: _407  and  _409
REMARK  173  A    between atoms: _409  and  _410
REMARK  174  A    between atoms: _409  and  _412
REMARK  175  A    between atoms: _412  and  _413
REMARK  176  A    between atoms: _418  and  _420
REMARK  177  A    between atoms: _420  and  _421
REMARK  178  A    between atoms: _420  and  _423
REMARK  179  A    between atoms: _423  and  _424
REMARK  180  A    between atoms: _429  and  _431
REMARK  181  A    between atoms: _431  and  _432
REMARK  182  A    between atoms: _431  and  _434
REMARK  183  A    between atoms: _434  and  _435
REMARK  184  A    between atoms: _438  and  _440
REMARK  185  A    between atoms: _440  and  _441
REMARK  186  A    between atoms: _440  and  _443
REMARK  187  A    between atoms: _443  and  _444
REMARK  188  A    between atoms: _450  and  _451
REMARK  189  A    between atoms: _456  and  _458
REMARK  190  A    between atoms: _458  and  _459
REMARK  191  A    between atoms: _458  and  _461
REMARK  192  A    between atoms: _461  and  _462
REMARK  193  A    between atoms: _464  and  _466
REMARK  194  A    between atoms: _466  and  _467
REMARK  195  A    between atoms: _466  and  _469
REMARK  196  A    between atoms: _469  and  _470
REMARK  197  A    between atoms: _475  and  _477
REMARK  198  A    between atoms: _477  and  _478
REMARK  199  A    between atoms: _477  and  _480
REMARK  200  A    between atoms: _480  and  _481
REMARK  201  A    between atoms: _484  and  _486
REMARK  202  A    between atoms: _486  and  _487
REMARK  203  A    between atoms: _490  and  _492
REMARK  204  A    between atoms: _492  and  _493
REMARK  205  A    between atoms: _492  and  _495
REMARK  206  A    between atoms: _498  and  _500
REMARK  207  A    between atoms: _500  and  _501
REMARK  208  A    between atoms: _500  and  _503
REMARK  209  A    between atoms: _503  and  _504
REMARK  210  A    between atoms: _504  and  _505
REMARK  211  A    between atoms: _505  and  _506
REMARK  212  A    between atoms: _506  and  _507
REMARK  213  A    between atoms: _511  and  _513
REMARK  214  A    between atoms: _513  and  _514
REMARK  215  A    between atoms: _513  and  _516
REMARK  216  A    between atoms: _516  and  _517
REMARK  217  A    between atoms: _520  and  _522
REMARK  218  A    between atoms: _522  and  _523
REMARK  219  A    between atoms: _522  and  _525
REMARK  220  A    between atoms: _525  and  _526
REMARK  221  A    between atoms: _529  and  _531
REMARK  222  A    between atoms: _531  and  _532
REMARK  223  A    between atoms: _531  and  _534
REMARK  224  A    between atoms: _534  and  _535
REMARK  225  A    between atoms: _538  and  _540
REMARK  226  A    between atoms: _540  and  _541
REMARK  227  A    between atoms: _540  and  _543
REMARK  228  A    between atoms: _543  and  _544
REMARK  229  A    between atoms: _550  and  _552
REMARK  230  A    between atoms: _552  and  _553
REMARK  231  A    between atoms: _555  and  _557
REMARK  232  A    between atoms: _557  and  _558
REMARK  233  A    between atoms: _557  and  _560
REMARK  234  A    between atoms: _560  and  _561
REMARK                            x       y       z     vdW  Elec       q    Type
REMARK                         _______ _______ _______ _____ _____    ______ ____
ROOT
ATOM      1  O   HOH     1      49.204  37.879  29.575  0.00  0.00    +0.000 OA
ENDROOT
TORSDOF 0
