REMARK  Name = ../refined-set-2016/4yhq/4yhq_pocket.pdb
REMARK  217 active torsions:
REMARK  status: ('A' for Active; 'I' for Inactive)
REMARK    1  A    between atoms: _1  and  _3
REMARK    2  A    between atoms: _3  and  _4
REMARK    3  A    between atoms: _3  and  _6
REMARK    4  A    between atoms: _6  and  _7
REMARK    5  A    between atoms: _7  and  _8
REMARK    6  A    between atoms: _8  and  _9
REMARK    7  A    between atoms: _18  and  _20
REMARK    8  A    between atoms: _20  and  _21
REMARK    9  A    between atoms: _20  and  _23
REMARK   10  A    between atoms: _23  and  _24
REMARK   11  A    between atoms: _30  and  _32
REMARK   12  A    between atoms: _32  and  _33
REMARK   13  A    between atoms: _32  and  _35
REMARK   14  A    between atoms: _35  and  _36
REMARK   15  A    between atoms: _39  and  _41
REMARK   16  A    between atoms: _41  and  _42
REMARK   17  A    between atoms: _41  and  _44
REMARK   18  A    between atoms: _44  and  _45
REMARK   19  A    between atoms: _48  and  _50
REMARK   20  A    between atoms: _50  and  _51
REMARK   21  A    between atoms: _50  and  _53
REMARK   22  A    between atoms: _53  and  _54
REMARK   23  A    between atoms: _57  and  _59
REMARK   24  A    between atoms: _59  and  _60
REMARK   25  A    between atoms: _59  and  _62
REMARK   26  A    between atoms: _62  and  _63
REMARK   27  A    between atoms: _66  and  _68
REMARK   28  A    between atoms: _68  and  _69
REMARK   29  A    between atoms: _71  and  _73
REMARK   30  A    between atoms: _73  and  _74
REMARK   31  A    between atoms: _77  and  _79
REMARK   32  A    between atoms: _79  and  _80
REMARK   33  A    between atoms: _79  and  _82
REMARK   34  A    between atoms: _82  and  _83
REMARK   35  A    between atoms: _86  and  _88
REMARK   36  A    between atoms: _88  and  _89
REMARK   37  A    between atoms: _88  and  _91
REMARK   38  A    between atoms: _91  and  _92
REMARK   39  A    between atoms: _97  and  _99
REMARK   40  A    between atoms: _99  and  _100
REMARK   41  A    between atoms: _99  and  _102
REMARK   42  A    between atoms: _102  and  _103
REMARK   43  A    between atoms: _106  and  _108
REMARK   44  A    between atoms: _108  and  _109
REMARK   45  A    between atoms: _108  and  _111
REMARK   46  A    between atoms: _111  and  _112
REMARK   47  A    between atoms: _115  and  _117
REMARK   48  A    between atoms: _117  and  _118
REMARK   49  A    between atoms: _117  and  _120
REMARK   50  A    between atoms: _120  and  _121
REMARK   51  A    between atoms: _121  and  _122
REMARK   52  A    between atoms: _124  and  _126
REMARK   53  A    between atoms: _126  and  _127
REMARK   54  A    between atoms: _126  and  _129
REMARK   55  A    between atoms: _132  and  _134
REMARK   56  A    between atoms: _134  and  _135
REMARK   57  A    between atoms: _137  and  _139
REMARK   58  A    between atoms: _139  and  _140
REMARK   59  A    between atoms: _142  and  _144
REMARK   60  A    between atoms: _144  and  _145
REMARK   61  A    between atoms: _144  and  _147
REMARK   62  A    between atoms: _147  and  _148
REMARK   63  A    between atoms: _151  and  _153
REMARK   64  A    between atoms: _153  and  _154
REMARK   65  A    between atoms: _156  and  _158
REMARK   66  A    between atoms: _158  and  _159
REMARK   67  A    between atoms: _161  and  _163
REMARK   68  A    between atoms: _163  and  _164
REMARK   69  A    between atoms: _163  and  _166
REMARK   70  A    between atoms: _166  and  _167
REMARK   71  A    between atoms: _173  and  _175
REMARK   72  A    between atoms: _175  and  _176
REMARK   73  A    between atoms: _175  and  _178
REMARK   74  A    between atoms: _178  and  _179
REMARK   75  A    between atoms: _182  and  _184
REMARK   76  A    between atoms: _184  and  _185
REMARK   77  A    between atoms: _184  and  _187
REMARK   78  A    between atoms: _187  and  _188
REMARK   79  A    between atoms: _191  and  _193
REMARK   80  A    between atoms: _193  and  _194
REMARK   81  A    between atoms: _193  and  _196
REMARK   82  A    between atoms: _196  and  _197
REMARK   83  A    between atoms: _201  and  _202
REMARK   84  A    between atoms: _207  and  _209
REMARK   85  A    between atoms: _209  and  _210
REMARK   86  A    between atoms: _209  and  _212
REMARK   87  A    between atoms: _215  and  _217
REMARK   88  A    between atoms: _217  and  _218
REMARK   89  A    between atoms: _217  and  _220
REMARK   90  A    between atoms: _220  and  _221
REMARK   91  A    between atoms: _226  and  _228
REMARK   92  A    between atoms: _228  and  _229
REMARK   93  A    between atoms: _228  and  _231
REMARK   94  A    between atoms: _234  and  _236
REMARK   95  A    between atoms: _236  and  _237
REMARK   96  A    between atoms: _239  and  _241
REMARK   97  A    between atoms: _241  and  _242
REMARK   98  A    between atoms: _241  and  _244
REMARK   99  A    between atoms: _244  and  _245
REMARK  100  A    between atoms: _245  and  _246
REMARK  101  A    between atoms: _246  and  _247
REMARK  102  A    between atoms: _256  and  _258
REMARK  103  A    between atoms: _258  and  _259
REMARK  104  A    between atoms: _258  and  _261
REMARK  105  A    between atoms: _261  and  _262
REMARK  106  A    between atoms: _265  and  _267
REMARK  107  A    between atoms: _267  and  _268
REMARK  108  A    between atoms: _267  and  _270
REMARK  109  A    between atoms: _270  and  _271
REMARK  110  A    between atoms: _271  and  _272
REMARK  111  A    between atoms: _272  and  _273
REMARK  112  A    between atoms: _282  and  _284
REMARK  113  A    between atoms: _284  and  _285
REMARK  114  A    between atoms: _284  and  _287
REMARK  115  A    between atoms: _287  and  _288
REMARK  116  A    between atoms: _294  and  _296
REMARK  117  A    between atoms: _296  and  _297
REMARK  118  A    between atoms: _296  and  _299
REMARK  119  A    between atoms: _299  and  _300
REMARK  120  A    between atoms: _303  and  _305
REMARK  121  A    between atoms: _305  and  _306
REMARK  122  A    between atoms: _305  and  _308
REMARK  123  A    between atoms: _308  and  _309
REMARK  124  A    between atoms: _312  and  _314
REMARK  125  A    between atoms: _314  and  _315
REMARK  126  A    between atoms: _314  and  _317
REMARK  127  A    between atoms: _317  and  _318
REMARK  128  A    between atoms: _321  and  _323
REMARK  129  A    between atoms: _323  and  _324
REMARK  130  A    between atoms: _323  and  _326
REMARK  131  A    between atoms: _326  and  _327
REMARK  132  A    between atoms: _330  and  _332
REMARK  133  A    between atoms: _332  and  _333
REMARK  134  A    between atoms: _335  and  _337
REMARK  135  A    between atoms: _337  and  _338
REMARK  136  A    between atoms: _341  and  _343
REMARK  137  A    between atoms: _343  and  _344
REMARK  138  A    between atoms: _343  and  _346
REMARK  139  A    between atoms: _346  and  _347
REMARK  140  A    between atoms: _350  and  _352
REMARK  141  A    between atoms: _352  and  _353
REMARK  142  A    between atoms: _352  and  _355
REMARK  143  A    between atoms: _355  and  _356
REMARK  144  A    between atoms: _361  and  _363
REMARK  145  A    between atoms: _363  and  _364
REMARK  146  A    between atoms: _363  and  _366
REMARK  147  A    between atoms: _366  and  _367
REMARK  148  A    between atoms: _370  and  _372
REMARK  149  A    between atoms: _372  and  _373
REMARK  150  A    between atoms: _372  and  _375
REMARK  151  A    between atoms: _375  and  _376
REMARK  152  A    between atoms: _379  and  _381
REMARK  153  A    between atoms: _381  and  _382
REMARK  154  A    between atoms: _381  and  _384
REMARK  155  A    between atoms: _384  and  _385
REMARK  156  A    between atoms: _385  and  _386
REMARK  157  A    between atoms: _388  and  _390
REMARK  158  A    between atoms: _390  and  _391
REMARK  159  A    between atoms: _390  and  _393
REMARK  160  A    between atoms: _396  and  _398
REMARK  161  A    between atoms: _398  and  _399
REMARK  162  A    between atoms: _401  and  _403
REMARK  163  A    between atoms: _403  and  _404
REMARK  164  A    between atoms: _406  and  _408
REMARK  165  A    between atoms: _408  and  _409
REMARK  166  A    between atoms: _408  and  _411
REMARK  167  A    between atoms: _411  and  _412
REMARK  168  A    between atoms: _415  and  _417
REMARK  169  A    between atoms: _417  and  _418
REMARK  170  A    between atoms: _420  and  _422
REMARK  171  A    between atoms: _422  and  _423
REMARK  172  A    between atoms: _425  and  _427
REMARK  173  A    between atoms: _427  and  _428
REMARK  174  A    between atoms: _427  and  _430
REMARK  175  A    between atoms: _430  and  _431
REMARK  176  A    between atoms: _437  and  _439
REMARK  177  A    between atoms: _439  and  _440
REMARK  178  A    between atoms: _439  and  _442
REMARK  179  A    between atoms: _442  and  _443
REMARK  180  A    between atoms: _446  and  _448
REMARK  181  A    between atoms: _448  and  _449
REMARK  182  A    between atoms: _448  and  _451
REMARK  183  A    between atoms: _454  and  _456
REMARK  184  A    between atoms: _456  and  _457
REMARK  185  A    between atoms: _456  and  _459
REMARK  186  A    between atoms: _459  and  _460
REMARK  187  A    between atoms: _463  and  _465
REMARK  188  A    between atoms: _465  and  _466
REMARK  189  A    between atoms: _465  and  _468
REMARK  190  A    between atoms: _468  and  _469
REMARK  191  A    between atoms: _473  and  _474
REMARK  192  A    between atoms: _479  and  _481
REMARK  193  A    between atoms: _481  and  _482
REMARK  194  A    between atoms: _481  and  _484
REMARK  195  A    between atoms: _487  and  _489
REMARK  196  A    between atoms: _489  and  _490
REMARK  197  A    between atoms: _489  and  _492
REMARK  198  A    between atoms: _492  and  _493
REMARK  199  A    between atoms: _498  and  _500
REMARK  200  A    between atoms: _500  and  _501
REMARK  201  A    between atoms: _500  and  _503
REMARK  202  A    between atoms: _506  and  _508
REMARK  203  A    between atoms: _508  and  _509
REMARK  204  A    between atoms: _508  and  _511
REMARK  205  A    between atoms: _511  and  _512
REMARK  206  A    between atoms: _515  and  _517
REMARK  207  A    between atoms: _517  and  _518
REMARK  208  A    between atoms: _520  and  _522
REMARK  209  A    between atoms: _522  and  _523
REMARK  210  A    between atoms: _522  and  _525
REMARK  211  A    between atoms: _525  and  _526
REMARK  212  A    between atoms: _526  and  _527
REMARK  213  A    between atoms: _527  and  _528
REMARK  214  A    between atoms: _537  and  _539
REMARK  215  A    between atoms: _539  and  _540
REMARK  216  A    between atoms: _539  and  _542
REMARK  217  A    between atoms: _542  and  _543
REMARK                            x       y       z     vdW  Elec       q    Type
REMARK                         _______ _______ _______ _____ _____    ______ ____
ROOT
ATOM      1  NE  ARG A   1     -21.523  10.307  -3.992  0.00  0.00    -0.265 N 
ATOM      2  CZ  ARG A   1     -20.331  10.817  -3.674  0.00  0.00    +0.342 C 
ATOM      3  NH2 ARG A   1     -19.350  10.028  -3.181  0.00  0.00    -0.292 N 
ATOM      4 HH21 ARG A   1     -18.426  10.438  -2.937  0.00  0.00    +0.255 HD
ATOM      5 HH22 ARG A   1     -19.519   9.011  -3.045  0.00  0.00    +0.255 HD
ATOM      6  NH1 ARG A   1     -20.130  12.112  -3.879  0.00  0.00    -0.292 N 
ATOM      7 HH11 ARG A   1     -19.212  12.540  -3.642  0.00  0.00    +0.255 HD
ATOM      8 HH12 ARG A   1     -20.890  12.700  -4.277  0.00  0.00    +0.255 HD
ATOM      9  HE  ARG A   1     -22.236  10.946  -4.398  0.00  0.00    +0.259 HD
ENDROOT
BRANCH   1  10
ATOM     10  CD  ARG A   1     -21.886   8.907  -3.804  0.00  0.00    +0.174 C 
BRANCH  10  11
ATOM     11  CG  ARG A   1     -23.277   8.532  -4.270  0.00  0.00    +0.045 C 
BRANCH  11  12
ATOM     12  CB  ARG A   1     -24.329   8.959  -3.277  0.00  0.00    +0.029 C 
BRANCH  12  13
ATOM     13  CA  ARG A   1     -25.638   8.252  -3.547  0.00  0.00    +0.133 C 
BRANCH  13  14
ATOM     14  N   ARG A   1     -26.150   8.727  -4.825  0.00  0.00    -0.239 NA
ATOM     15  H   ARG A   1     -25.556   9.342  -5.417  0.00  0.00    +0.142 HD
ENDBRANCH  13  14
BRANCH  13  16
ATOM     16  C   ARG A   1     -26.622   8.675  -2.442  0.00  0.00    +0.224 C 
ATOM     17  O   ARG A   1     -27.024   9.870  -2.395  0.00  0.00    -0.287 OA
ENDBRANCH  13  16
ENDBRANCH  12  13
ENDBRANCH  11  12
ENDBRANCH  10  11
ENDBRANCH   1  10
TORSDOF 6
REMARK  Name = ../refined-set-2016/4yhq/4yhq_pocket.pdb
REMARK  217 active torsions:
REMARK  status: ('A' for Active; 'I' for Inactive)
REMARK    1  A    between atoms: _1  and  _3
REMARK    2  A    between atoms: _3  and  _4
REMARK    3  A    between atoms: _3  and  _6
REMARK    4  A    between atoms: _6  and  _7
REMARK    5  A    between atoms: _7  and  _8
REMARK    6  A    between atoms: _8  and  _9
REMARK    7  A    between atoms: _18  and  _20
REMARK    8  A    between atoms: _20  and  _21
REMARK    9  A    between atoms: _20  and  _23
REMARK   10  A    between atoms: _23  and  _24
REMARK   11  A    between atoms: _30  and  _32
REMARK   12  A    between atoms: _32  and  _33
REMARK   13  A    between atoms: _32  and  _35
REMARK   14  A    between atoms: _35  and  _36
REMARK   15  A    between atoms: _39  and  _41
REMARK   16  A    between atoms: _41  and  _42
REMARK   17  A    between atoms: _41  and  _44
REMARK   18  A    between atoms: _44  and  _45
REMARK   19  A    between atoms: _48  and  _50
REMARK   20  A    between atoms: _50  and  _51
REMARK   21  A    between atoms: _50  and  _53
REMARK   22  A    between atoms: _53  and  _54
REMARK   23  A    between atoms: _57  and  _59
REMARK   24  A    between atoms: _59  and  _60
REMARK   25  A    between atoms: _59  and  _62
REMARK   26  A    between atoms: _62  and  _63
REMARK   27  A    between atoms: _66  and  _68
REMARK   28  A    between atoms: _68  and  _69
REMARK   29  A    between atoms: _71  and  _73
REMARK   30  A    between atoms: _73  and  _74
REMARK   31  A    between atoms: _77  and  _79
REMARK   32  A    between atoms: _79  and  _80
REMARK   33  A    between atoms: _79  and  _82
REMARK   34  A    between atoms: _82  and  _83
REMARK   35  A    between atoms: _86  and  _88
REMARK   36  A    between atoms: _88  and  _89
REMARK   37  A    between atoms: _88  and  _91
REMARK   38  A    between atoms: _91  and  _92
REMARK   39  A    between atoms: _97  and  _99
REMARK   40  A    between atoms: _99  and  _100
REMARK   41  A    between atoms: _99  and  _102
REMARK   42  A    between atoms: _102  and  _103
REMARK   43  A    between atoms: _106  and  _108
REMARK   44  A    between atoms: _108  and  _109
REMARK   45  A    between atoms: _108  and  _111
REMARK   46  A    between atoms: _111  and  _112
REMARK   47  A    between atoms: _115  and  _117
REMARK   48  A    between atoms: _117  and  _118
REMARK   49  A    between atoms: _117  and  _120
REMARK   50  A    between atoms: _120  and  _121
REMARK   51  A    between atoms: _121  and  _122
REMARK   52  A    between atoms: _124  and  _126
REMARK   53  A    between atoms: _126  and  _127
REMARK   54  A    between atoms: _126  and  _129
REMARK   55  A    between atoms: _132  and  _134
REMARK   56  A    between atoms: _134  and  _135
REMARK   57  A    between atoms: _137  and  _139
REMARK   58  A    between atoms: _139  and  _140
REMARK   59  A    between atoms: _142  and  _144
REMARK   60  A    between atoms: _144  and  _145
REMARK   61  A    between atoms: _144  and  _147
REMARK   62  A    between atoms: _147  and  _148
REMARK   63  A    between atoms: _151  and  _153
REMARK   64  A    between atoms: _153  and  _154
REMARK   65  A    between atoms: _156  and  _158
REMARK   66  A    between atoms: _158  and  _159
REMARK   67  A    between atoms: _161  and  _163
REMARK   68  A    between atoms: _163  and  _164
REMARK   69  A    between atoms: _163  and  _166
REMARK   70  A    between atoms: _166  and  _167
REMARK   71  A    between atoms: _173  and  _175
REMARK   72  A    between atoms: _175  and  _176
REMARK   73  A    between atoms: _175  and  _178
REMARK   74  A    between atoms: _178  and  _179
REMARK   75  A    between atoms: _182  and  _184
REMARK   76  A    between atoms: _184  and  _185
REMARK   77  A    between atoms: _184  and  _187
REMARK   78  A    between atoms: _187  and  _188
REMARK   79  A    between atoms: _191  and  _193
REMARK   80  A    between atoms: _193  and  _194
REMARK   81  A    between atoms: _193  and  _196
REMARK   82  A    between atoms: _196  and  _197
REMARK   83  A    between atoms: _201  and  _202
REMARK   84  A    between atoms: _207  and  _209
REMARK   85  A    between atoms: _209  and  _210
REMARK   86  A    between atoms: _209  and  _212
REMARK   87  A    between atoms: _215  and  _217
REMARK   88  A    between atoms: _217  and  _218
REMARK   89  A    between atoms: _217  and  _220
REMARK   90  A    between atoms: _220  and  _221
REMARK   91  A    between atoms: _226  and  _228
REMARK   92  A    between atoms: _228  and  _229
REMARK   93  A    between atoms: _228  and  _231
REMARK   94  A    between atoms: _234  and  _236
REMARK   95  A    between atoms: _236  and  _237
REMARK   96  A    between atoms: _239  and  _241
REMARK   97  A    between atoms: _241  and  _242
REMARK   98  A    between atoms: _241  and  _244
REMARK   99  A    between atoms: _244  and  _245
REMARK  100  A    between atoms: _245  and  _246
REMARK  101  A    between atoms: _246  and  _247
REMARK  102  A    between atoms: _256  and  _258
REMARK  103  A    between atoms: _258  and  _259
REMARK  104  A    between atoms: _258  and  _261
REMARK  105  A    between atoms: _261  and  _262
REMARK  106  A    between atoms: _265  and  _267
REMARK  107  A    between atoms: _267  and  _268
REMARK  108  A    between atoms: _267  and  _270
REMARK  109  A    between atoms: _270  and  _271
REMARK  110  A    between atoms: _271  and  _272
REMARK  111  A    between atoms: _272  and  _273
REMARK  112  A    between atoms: _282  and  _284
REMARK  113  A    between atoms: _284  and  _285
REMARK  114  A    between atoms: _284  and  _287
REMARK  115  A    between atoms: _287  and  _288
REMARK  116  A    between atoms: _294  and  _296
REMARK  117  A    between atoms: _296  and  _297
REMARK  118  A    between atoms: _296  and  _299
REMARK  119  A    between atoms: _299  and  _300
REMARK  120  A    between atoms: _303  and  _305
REMARK  121  A    between atoms: _305  and  _306
REMARK  122  A    between atoms: _305  and  _308
REMARK  123  A    between atoms: _308  and  _309
REMARK  124  A    between atoms: _312  and  _314
REMARK  125  A    between atoms: _314  and  _315
REMARK  126  A    between atoms: _314  and  _317
REMARK  127  A    between atoms: _317  and  _318
REMARK  128  A    between atoms: _321  and  _323
REMARK  129  A    between atoms: _323  and  _324
REMARK  130  A    between atoms: _323  and  _326
REMARK  131  A    between atoms: _326  and  _327
REMARK  132  A    between atoms: _330  and  _332
REMARK  133  A    between atoms: _332  and  _333
REMARK  134  A    between atoms: _335  and  _337
REMARK  135  A    between atoms: _337  and  _338
REMARK  136  A    between atoms: _341  and  _343
REMARK  137  A    between atoms: _343  and  _344
REMARK  138  A    between atoms: _343  and  _346
REMARK  139  A    between atoms: _346  and  _347
REMARK  140  A    between atoms: _350  and  _352
REMARK  141  A    between atoms: _352  and  _353
REMARK  142  A    between atoms: _352  and  _355
REMARK  143  A    between atoms: _355  and  _356
REMARK  144  A    between atoms: _361  and  _363
REMARK  145  A    between atoms: _363  and  _364
REMARK  146  A    between atoms: _363  and  _366
REMARK  147  A    between atoms: _366  and  _367
REMARK  148  A    between atoms: _370  and  _372
REMARK  149  A    between atoms: _372  and  _373
REMARK  150  A    between atoms: _372  and  _375
REMARK  151  A    between atoms: _375  and  _376
REMARK  152  A    between atoms: _379  and  _381
REMARK  153  A    between atoms: _381  and  _382
REMARK  154  A    between atoms: _381  and  _384
REMARK  155  A    between atoms: _384  and  _385
REMARK  156  A    between atoms: _385  and  _386
REMARK  157  A    between atoms: _388  and  _390
REMARK  158  A    between atoms: _390  and  _391
REMARK  159  A    between atoms: _390  and  _393
REMARK  160  A    between atoms: _396  and  _398
REMARK  161  A    between atoms: _398  and  _399
REMARK  162  A    between atoms: _401  and  _403
REMARK  163  A    between atoms: _403  and  _404
REMARK  164  A    between atoms: _406  and  _408
REMARK  165  A    between atoms: _408  and  _409
REMARK  166  A    between atoms: _408  and  _411
REMARK  167  A    between atoms: _411  and  _412
REMARK  168  A    between atoms: _415  and  _417
REMARK  169  A    between atoms: _417  and  _418
REMARK  170  A    between atoms: _420  and  _422
REMARK  171  A    between atoms: _422  and  _423
REMARK  172  A    between atoms: _425  and  _427
REMARK  173  A    between atoms: _427  and  _428
REMARK  174  A    between atoms: _427  and  _430
REMARK  175  A    between atoms: _430  and  _431
REMARK  176  A    between atoms: _437  and  _439
REMARK  177  A    between atoms: _439  and  _440
REMARK  178  A    between atoms: _439  and  _442
REMARK  179  A    between atoms: _442  and  _443
REMARK  180  A    between atoms: _446  and  _448
REMARK  181  A    between atoms: _448  and  _449
REMARK  182  A    between atoms: _448  and  _451
REMARK  183  A    between atoms: _454  and  _456
REMARK  184  A    between atoms: _456  and  _457
REMARK  185  A    between atoms: _456  and  _459
REMARK  186  A    between atoms: _459  and  _460
REMARK  187  A    between atoms: _463  and  _465
REMARK  188  A    between atoms: _465  and  _466
REMARK  189  A    between atoms: _465  and  _468
REMARK  190  A    between atoms: _468  and  _469
REMARK  191  A    between atoms: _473  and  _474
REMARK  192  A    between atoms: _479  and  _481
REMARK  193  A    between atoms: _481  and  _482
REMARK  194  A    between atoms: _481  and  _484
REMARK  195  A    between atoms: _487  and  _489
REMARK  196  A    between atoms: _489  and  _490
REMARK  197  A    between atoms: _489  and  _492
REMARK  198  A    between atoms: _492  and  _493
REMARK  199  A    between atoms: _498  and  _500
REMARK  200  A    between atoms: _500  and  _501
REMARK  201  A    between atoms: _500  and  _503
REMARK  202  A    between atoms: _506  and  _508
REMARK  203  A    between atoms: _508  and  _509
REMARK  204  A    between atoms: _508  and  _511
REMARK  205  A    between atoms: _511  and  _512
REMARK  206  A    between atoms: _515  and  _517
REMARK  207  A    between atoms: _517  and  _518
REMARK  208  A    between atoms: _520  and  _522
REMARK  209  A    between atoms: _522  and  _523
REMARK  210  A    between atoms: _522  and  _525
REMARK  211  A    between atoms: _525  and  _526
REMARK  212  A    between atoms: _526  and  _527
REMARK  213  A    between atoms: _527  and  _528
REMARK  214  A    between atoms: _537  and  _539
REMARK  215  A    between atoms: _539  and  _540
REMARK  216  A    between atoms: _539  and  _542
REMARK  217  A    between atoms: _542  and  _543
REMARK                            x       y       z     vdW  Elec       q    Type
REMARK                         _______ _______ _______ _____ _____    ______ ____
ROOT
ATOM      1  CB  PHE A   1     -25.884  12.138   1.051  0.00  0.00    +0.051 C 
ENDROOT
BRANCH   1   2
ATOM      2  CG  PHE A   1     -24.470  11.813   0.678  0.00  0.00    -0.020 A 
ATOM      3  CD2 PHE A   1     -23.536  11.584   1.699  0.00  0.00    -0.004 A 
ATOM      4  CE2 PHE A   1     -22.218  11.274   1.423  0.00  0.00    -0.000 A 
ATOM      5  CZ  PHE A   1     -21.831  11.183   0.060  0.00  0.00    -0.000 A 
ATOM      6  CE1 PHE A   1     -22.769  11.340  -1.002  0.00  0.00    -0.000 A 
ATOM      7  CD1 PHE A   1     -24.071  11.687  -0.691  0.00  0.00    -0.004 A 
ENDBRANCH   1   2
BRANCH   1   8
ATOM      8  CA  PHE A   1     -26.648  10.955   1.603  0.00  0.00    +0.137 C 
BRANCH   8   9
ATOM      9  N   PHE A   1     -27.103  10.083   0.516  0.00  0.00    -0.239 NA
ATOM     10  H   PHE A   1     -27.141  10.453  -0.455  0.00  0.00    +0.142 HD
ENDBRANCH   8   9
BRANCH   8  11
ATOM     11  C   PHE A   1     -27.788  11.414   2.427  0.00  0.00    +0.224 C 
ATOM     12  O   PHE A   1     -28.874  11.777   1.908  0.00  0.00    -0.287 OA
ENDBRANCH   8  11
ENDBRANCH   1   8
TORSDOF 4
REMARK  Name = ../refined-set-2016/4yhq/4yhq_pocket.pdb
REMARK  217 active torsions:
REMARK  status: ('A' for Active; 'I' for Inactive)
REMARK    1  A    between atoms: _1  and  _3
REMARK    2  A    between atoms: _3  and  _4
REMARK    3  A    between atoms: _3  and  _6
REMARK    4  A    between atoms: _6  and  _7
REMARK    5  A    between atoms: _7  and  _8
REMARK    6  A    between atoms: _8  and  _9
REMARK    7  A    between atoms: _18  and  _20
REMARK    8  A    between atoms: _20  and  _21
REMARK    9  A    between atoms: _20  and  _23
REMARK   10  A    between atoms: _23  and  _24
REMARK   11  A    between atoms: _30  and  _32
REMARK   12  A    between atoms: _32  and  _33
REMARK   13  A    between atoms: _32  and  _35
REMARK   14  A    between atoms: _35  and  _36
REMARK   15  A    between atoms: _39  and  _41
REMARK   16  A    between atoms: _41  and  _42
REMARK   17  A    between atoms: _41  and  _44
REMARK   18  A    between atoms: _44  and  _45
REMARK   19  A    between atoms: _48  and  _50
REMARK   20  A    between atoms: _50  and  _51
REMARK   21  A    between atoms: _50  and  _53
REMARK   22  A    between atoms: _53  and  _54
REMARK   23  A    between atoms: _57  and  _59
REMARK   24  A    between atoms: _59  and  _60
REMARK   25  A    between atoms: _59  and  _62
REMARK   26  A    between atoms: _62  and  _63
REMARK   27  A    between atoms: _66  and  _68
REMARK   28  A    between atoms: _68  and  _69
REMARK   29  A    between atoms: _71  and  _73
REMARK   30  A    between atoms: _73  and  _74
REMARK   31  A    between atoms: _77  and  _79
REMARK   32  A    between atoms: _79  and  _80
REMARK   33  A    between atoms: _79  and  _82
REMARK   34  A    between atoms: _82  and  _83
REMARK   35  A    between atoms: _86  and  _88
REMARK   36  A    between atoms: _88  and  _89
REMARK   37  A    between atoms: _88  and  _91
REMARK   38  A    between atoms: _91  and  _92
REMARK   39  A    between atoms: _97  and  _99
REMARK   40  A    between atoms: _99  and  _100
REMARK   41  A    between atoms: _99  and  _102
REMARK   42  A    between atoms: _102  and  _103
REMARK   43  A    between atoms: _106  and  _108
REMARK   44  A    between atoms: _108  and  _109
REMARK   45  A    between atoms: _108  and  _111
REMARK   46  A    between atoms: _111  and  _112
REMARK   47  A    between atoms: _115  and  _117
REMARK   48  A    between atoms: _117  and  _118
REMARK   49  A    between atoms: _117  and  _120
REMARK   50  A    between atoms: _120  and  _121
REMARK   51  A    between atoms: _121  and  _122
REMARK   52  A    between atoms: _124  and  _126
REMARK   53  A    between atoms: _126  and  _127
REMARK   54  A    between atoms: _126  and  _129
REMARK   55  A    between atoms: _132  and  _134
REMARK   56  A    between atoms: _134  and  _135
REMARK   57  A    between atoms: _137  and  _139
REMARK   58  A    between atoms: _139  and  _140
REMARK   59  A    between atoms: _142  and  _144
REMARK   60  A    between atoms: _144  and  _145
REMARK   61  A    between atoms: _144  and  _147
REMARK   62  A    between atoms: _147  and  _148
REMARK   63  A    between atoms: _151  and  _153
REMARK   64  A    between atoms: _153  and  _154
REMARK   65  A    between atoms: _156  and  _158
REMARK   66  A    between atoms: _158  and  _159
REMARK   67  A    between atoms: _161  and  _163
REMARK   68  A    between atoms: _163  and  _164
REMARK   69  A    between atoms: _163  and  _166
REMARK   70  A    between atoms: _166  and  _167
REMARK   71  A    between atoms: _173  and  _175
REMARK   72  A    between atoms: _175  and  _176
REMARK   73  A    between atoms: _175  and  _178
REMARK   74  A    between atoms: _178  and  _179
REMARK   75  A    between atoms: _182  and  _184
REMARK   76  A    between atoms: _184  and  _185
REMARK   77  A    between atoms: _184  and  _187
REMARK   78  A    between atoms: _187  and  _188
REMARK   79  A    between atoms: _191  and  _193
REMARK   80  A    between atoms: _193  and  _194
REMARK   81  A    between atoms: _193  and  _196
REMARK   82  A    between atoms: _196  and  _197
REMARK   83  A    between atoms: _201  and  _202
REMARK   84  A    between atoms: _207  and  _209
REMARK   85  A    between atoms: _209  and  _210
REMARK   86  A    between atoms: _209  and  _212
REMARK   87  A    between atoms: _215  and  _217
REMARK   88  A    between atoms: _217  and  _218
REMARK   89  A    between atoms: _217  and  _220
REMARK   90  A    between atoms: _220  and  _221
REMARK   91  A    between atoms: _226  and  _228
REMARK   92  A    between atoms: _228  and  _229
REMARK   93  A    between atoms: _228  and  _231
REMARK   94  A    between atoms: _234  and  _236
REMARK   95  A    between atoms: _236  and  _237
REMARK   96  A    between atoms: _239  and  _241
REMARK   97  A    between atoms: _241  and  _242
REMARK   98  A    between atoms: _241  and  _244
REMARK   99  A    between atoms: _244  and  _245
REMARK  100  A    between atoms: _245  and  _246
REMARK  101  A    between atoms: _246  and  _247
REMARK  102  A    between atoms: _256  and  _258
REMARK  103  A    between atoms: _258  and  _259
REMARK  104  A    between atoms: _258  and  _261
REMARK  105  A    between atoms: _261  and  _262
REMARK  106  A    between atoms: _265  and  _267
REMARK  107  A    between atoms: _267  and  _268
REMARK  108  A    between atoms: _267  and  _270
REMARK  109  A    between atoms: _270  and  _271
REMARK  110  A    between atoms: _271  and  _272
REMARK  111  A    between atoms: _272  and  _273
REMARK  112  A    between atoms: _282  and  _284
REMARK  113  A    between atoms: _284  and  _285
REMARK  114  A    between atoms: _284  and  _287
REMARK  115  A    between atoms: _287  and  _288
REMARK  116  A    between atoms: _294  and  _296
REMARK  117  A    between atoms: _296  and  _297
REMARK  118  A    between atoms: _296  and  _299
REMARK  119  A    between atoms: _299  and  _300
REMARK  120  A    between atoms: _303  and  _305
REMARK  121  A    between atoms: _305  and  _306
REMARK  122  A    between atoms: _305  and  _308
REMARK  123  A    between atoms: _308  and  _309
REMARK  124  A    between atoms: _312  and  _314
REMARK  125  A    between atoms: _314  and  _315
REMARK  126  A    between atoms: _314  and  _317
REMARK  127  A    between atoms: _317  and  _318
REMARK  128  A    between atoms: _321  and  _323
REMARK  129  A    between atoms: _323  and  _324
REMARK  130  A    between atoms: _323  and  _326
REMARK  131  A    between atoms: _326  and  _327
REMARK  132  A    between atoms: _330  and  _332
REMARK  133  A    between atoms: _332  and  _333
REMARK  134  A    between atoms: _335  and  _337
REMARK  135  A    between atoms: _337  and  _338
REMARK  136  A    between atoms: _341  and  _343
REMARK  137  A    between atoms: _343  and  _344
REMARK  138  A    between atoms: _343  and  _346
REMARK  139  A    between atoms: _346  and  _347
REMARK  140  A    between atoms: _350  and  _352
REMARK  141  A    between atoms: _352  and  _353
REMARK  142  A    between atoms: _352  and  _355
REMARK  143  A    between atoms: _355  and  _356
REMARK  144  A    between atoms: _361  and  _363
REMARK  145  A    between atoms: _363  and  _364
REMARK  146  A    between atoms: _363  and  _366
REMARK  147  A    between atoms: _366  and  _367
REMARK  148  A    between atoms: _370  and  _372
REMARK  149  A    between atoms: _372  and  _373
REMARK  150  A    between atoms: _372  and  _375
REMARK  151  A    between atoms: _375  and  _376
REMARK  152  A    between atoms: _379  and  _381
REMARK  153  A    between atoms: _381  and  _382
REMARK  154  A    between atoms: _381  and  _384
REMARK  155  A    between atoms: _384  and  _385
REMARK  156  A    between atoms: _385  and  _386
REMARK  157  A    between atoms: _388  and  _390
REMARK  158  A    between atoms: _390  and  _391
REMARK  159  A    between atoms: _390  and  _393
REMARK  160  A    between atoms: _396  and  _398
REMARK  161  A    between atoms: _398  and  _399
REMARK  162  A    between atoms: _401  and  _403
REMARK  163  A    between atoms: _403  and  _404
REMARK  164  A    between atoms: _406  and  _408
REMARK  165  A    between atoms: _408  and  _409
REMARK  166  A    between atoms: _408  and  _411
REMARK  167  A    between atoms: _411  and  _412
REMARK  168  A    between atoms: _415  and  _417
REMARK  169  A    between atoms: _417  and  _418
REMARK  170  A    between atoms: _420  and  _422
REMARK  171  A    between atoms: _422  and  _423
REMARK  172  A    between atoms: _425  and  _427
REMARK  173  A    between atoms: _427  and  _428
REMARK  174  A    between atoms: _427  and  _430
REMARK  175  A    between atoms: _430  and  _431
REMARK  176  A    between atoms: _437  and  _439
REMARK  177  A    between atoms: _439  and  _440
REMARK  178  A    between atoms: _439  and  _442
REMARK  179  A    between atoms: _442  and  _443
REMARK  180  A    between atoms: _446  and  _448
REMARK  181  A    between atoms: _448  and  _449
REMARK  182  A    between atoms: _448  and  _451
REMARK  183  A    between atoms: _454  and  _456
REMARK  184  A    between atoms: _456  and  _457
REMARK  185  A    between atoms: _456  and  _459
REMARK  186  A    between atoms: _459  and  _460
REMARK  187  A    between atoms: _463  and  _465
REMARK  188  A    between atoms: _465  and  _466
REMARK  189  A    between atoms: _465  and  _468
REMARK  190  A    between atoms: _468  and  _469
REMARK  191  A    between atoms: _473  and  _474
REMARK  192  A    between atoms: _479  and  _481
REMARK  193  A    between atoms: _481  and  _482
REMARK  194  A    between atoms: _481  and  _484
REMARK  195  A    between atoms: _487  and  _489
REMARK  196  A    between atoms: _489  and  _490
REMARK  197  A    between atoms: _489  and  _492
REMARK  198  A    between atoms: _492  and  _493
REMARK  199  A    between atoms: _498  and  _500
REMARK  200  A    between atoms: _500  and  _501
REMARK  201  A    between atoms: _500  and  _503
REMARK  202  A    between atoms: _506  and  _508
REMARK  203  A    between atoms: _508  and  _509
REMARK  204  A    between atoms: _508  and  _511
REMARK  205  A    between atoms: _511  and  _512
REMARK  206  A    between atoms: _515  and  _517
REMARK  207  A    between atoms: _517  and  _518
REMARK  208  A    between atoms: _520  and  _522
REMARK  209  A    between atoms: _522  and  _523
REMARK  210  A    between atoms: _522  and  _525
REMARK  211  A    between atoms: _525  and  _526
REMARK  212  A    between atoms: _526  and  _527
REMARK  213  A    between atoms: _527  and  _528
REMARK  214  A    between atoms: _537  and  _539
REMARK  215  A    between atoms: _539  and  _540
REMARK  216  A    between atoms: _539  and  _542
REMARK  217  A    between atoms: _542  and  _543
REMARK                            x       y       z     vdW  Elec       q    Type
REMARK                         _______ _______ _______ _____ _____    ______ ____
ROOT
ATOM      1  C   GLY A   5     -21.856  -2.318   4.551  0.00  0.00    +0.243 C 
ATOM      2  N   ALA A   6     -22.175  -1.301   5.390  0.00  0.00    -0.297 N 
ATOM      3  H   ALA A   6     -23.053  -0.768   5.226  0.00  0.00    +0.150 HD
ATOM      4  O   GLY A   5     -20.828  -2.983   4.675  0.00  0.00    -0.273 OA
ENDROOT
BRANCH   2   5
ATOM      5  CA  ALA A   6     -21.317  -0.929   6.525  0.00  0.00    +0.149 C 
ATOM      6  CB  ALA A   6     -21.194   0.587   6.609  0.00  0.00    +0.031 C 
BRANCH   5   7
ATOM      7  C   ALA A   6     -21.925  -1.492   7.785  0.00  0.00    +0.241 C 
ATOM      8  N   ASP A   7     -21.118  -2.251   8.540  0.00  0.00    -0.297 N 
ATOM      9  H   ASP A   7     -20.162  -2.491   8.207  0.00  0.00    +0.150 HD
ATOM     10  O   ALA A   6     -23.045  -1.145   8.159  0.00  0.00    -0.273 OA
BRANCH   8  11
ATOM     11  CA  ASP A   7     -21.596  -2.744   9.847  0.00  0.00    +0.160 C 
BRANCH  11  12
ATOM     12  C   ASP A   7     -21.737  -1.589  10.823  0.00  0.00    +0.241 C 
ATOM     13  O   ASP A   7     -22.646  -1.599  11.664  0.00  0.00    -0.273 OA
ATOM     14  N   ASN A   8     -20.754  -0.658  10.702  0.00  0.00    -0.297 N 
ATOM     15  H   ASN A   8     -20.239  -0.627   9.799  0.00  0.00    +0.150 HD
BRANCH  14  16
ATOM     16  CA  ASN A   8     -20.357   0.302  11.727  0.00  0.00    +0.158 C 
BRANCH  16  17
ATOM     17  C   ASN A   8     -20.442   1.820  11.219  0.00  0.00    +0.241 C 
ATOM     18  N   THR A   9     -21.162   2.785  11.806  0.00  0.00    -0.295 N 
ATOM     19  H   THR A   9     -21.831   2.508  12.553  0.00  0.00    +0.150 HD
ATOM     20  O   ASN A   8     -19.781   2.091  10.293  0.00  0.00    -0.273 OA
BRANCH  18  21
ATOM     21  CA  THR A   9     -21.068   4.194  11.466  0.00  0.00    +0.176 C 
BRANCH  21  22
ATOM     22  C   THR A   9     -19.691   4.761  11.725  0.00  0.00    +0.243 C 
ATOM     23  O   THR A   9     -19.088   4.540  12.767  0.00  0.00    -0.273 OA
ATOM     24  N   ILE A  10     -19.209   5.523  10.765  0.00  0.00    -0.298 N 
ATOM     25  H   ILE A  10     -19.801   5.697   9.928  0.00  0.00    +0.150 HD
BRANCH  24  26
ATOM     26  CA  ILE A  10     -17.889   6.134  10.818  0.00  0.00    +0.137 C 
BRANCH  26  27
ATOM     27  CB  ILE A  10     -16.845   5.446   9.916  0.00  0.00    +0.026 C 
ATOM     28  CG2 ILE A  10     -15.417   6.038  10.142  0.00  0.00    +0.002 C 
BRANCH  27  29
ATOM     29  CG1 ILE A  10     -16.831   3.940  10.090  0.00  0.00    +0.002 C 
ATOM     30  CD1 ILE A  10     -15.899   3.194   9.214  0.00  0.00    +0.000 C 
ENDBRANCH  27  29
ENDBRANCH  26  27
BRANCH  26  31
ATOM     31  C   ILE A  10     -17.959   7.542  10.326  0.00  0.00    +0.227 C 
ATOM     32  O   ILE A  10     -18.564   7.813   9.269  0.00  0.00    -0.286 OA
ENDBRANCH  26  31
ENDBRANCH  24  26
ENDBRANCH  21  22
BRANCH  21  33
ATOM     33  CB  THR A   9     -22.127   4.923  12.330  0.00  0.00    +0.137 C 
ATOM     34  CG2 THR A   9     -22.101   6.436  12.217  0.00  0.00    +0.034 C 
BRANCH  33  35
ATOM     35  OG1 THR A   9     -23.402   4.446  11.859  0.00  0.00    -0.382 OA
ATOM     36  HG1 THR A   9     -24.127   4.879  12.376  0.00  0.00    +0.210 HD
ENDBRANCH  33  35
ENDBRANCH  21  33
ENDBRANCH  18  21
ENDBRANCH  16  17
BRANCH  16  37
ATOM     37  CB  ASN A   8     -18.846   0.076  12.178  0.00  0.00    +0.114 C 
BRANCH  37  38
ATOM     38  CG  ASN A   8     -18.475  -1.383  12.510  0.00  0.00    +0.222 C 
ATOM     39  ND2 ASN A   8     -19.277  -1.902  13.348  0.00  0.00    -0.329 N 
ATOM     40 HD21 ASN A   8     -20.063  -1.340  13.733  0.00  0.00    +0.145 HD
ATOM     41 HD22 ASN A   8     -19.148  -2.889  13.649  0.00  0.00    +0.145 HD
ATOM     42  OD1 ASN A   8     -17.467  -2.024  11.984  0.00  0.00    -0.275 OA
ENDBRANCH  37  38
ENDBRANCH  16  37
ENDBRANCH  14  16
ENDBRANCH  11  12
BRANCH  11  43
ATOM     43  CB  ASP A   7     -20.638  -3.752  10.458  0.00  0.00    +0.143 C 
BRANCH  43  44
ATOM     44  CG  ASP A   7     -20.485  -5.012   9.623  0.00  0.00    +0.367 C 
ATOM     45  OD2 ASP A   7     -19.449  -5.691   9.834  0.00  0.00    -0.246 OA
ATOM     46  OD1 ASP A   7     -21.369  -5.395   8.840  0.00  0.00    -0.246 OA
ENDBRANCH  43  44
ENDBRANCH  11  43
ENDBRANCH   8  11
ENDBRANCH   5   7
ENDBRANCH   2   5
BRANCH   1  47
ATOM     47  CA  GLY A   5     -22.823  -2.636   3.418  0.00  0.00    +0.176 C 
BRANCH  47  50
ATOM     48  C   THR A   4     -25.097  -2.051   4.078  0.00  0.00    +0.243 C 
ATOM     49  O   THR A   4     -25.171  -3.080   4.752  0.00  0.00    -0.273 OA
ATOM     50  N   GLY A   5     -23.994  -1.763   3.351  0.00  0.00    -0.295 N 
ATOM     51  H   GLY A   5     -23.978  -0.919   2.743  0.00  0.00    +0.150 HD
BRANCH  48  52
ATOM     52  CA  THR A   4     -26.256  -1.081   4.115  0.00  0.00    +0.176 C 
BRANCH  52  55
ATOM     53  C   ASP A   3     -24.969   0.985   4.320  0.00  0.00    +0.241 C 
ATOM     54  O   ASP A   3     -24.464   0.569   5.384  0.00  0.00    -0.273 OA
ATOM     55  N   THR A   4     -25.816   0.229   3.618  0.00  0.00    -0.295 N 
ATOM     56  H   THR A   4     -26.171   0.574   2.703  0.00  0.00    +0.150 HD
BRANCH  53  57
ATOM     57  CA  ASP A   3     -24.663   2.357   3.757  0.00  0.00    +0.160 C 
BRANCH  57  59
ATOM     58  C   LEU A   2     -26.227   4.234   3.577  0.00  0.00    +0.241 C 
ATOM     59  N   ASP A   3     -25.503   3.401   4.354  0.00  0.00    -0.297 N 
ATOM     60  H   ASP A   3     -25.541   3.501   5.389  0.00  0.00    +0.150 HD
ATOM     61  O   LEU A   2     -26.398   4.039   2.387  0.00  0.00    -0.273 OA
BRANCH  58  62
ATOM     62  CA  LEU A   2     -26.805   5.446   4.272  0.00  0.00    +0.149 C 
BRANCH  62  65
ATOM     63  C   LEU A   1     -24.694   6.785   3.964  0.00  0.00    +0.238 C 
ATOM     64  O   LEU A   1     -24.017   6.109   4.773  0.00  0.00    -0.274 OA
ATOM     65  N   LEU A   2     -26.078   6.613   3.744  0.00  0.00    -0.297 N 
ATOM     66  H   LEU A   2     -26.597   7.328   3.195  0.00  0.00    +0.150 HD
BRANCH  63  67
ATOM     67  CA  LEU A   1     -23.870   7.885   3.211  0.00  0.00    +0.145 C 
BRANCH  67  68
ATOM     68  N   LEU A   1     -23.342   8.851   4.154  0.00  0.00    -0.238 NA
ATOM     69  H   LEU A   1     -22.345   8.748   4.432  0.00  0.00    +0.142 HD
ENDBRANCH  67  68
BRANCH  67  70
ATOM     70  CB  LEU A   1     -22.612   7.297   2.523  0.00  0.00    +0.026 C 
BRANCH  70  71
ATOM     71  CG  LEU A   1     -22.932   6.324   1.388  0.00  0.00    +0.002 C 
ATOM     72  CD2 LEU A   1     -21.653   5.758   0.828  0.00  0.00    +0.000 C 
ATOM     73  CD1 LEU A   1     -23.694   7.115   0.373  0.00  0.00    +0.000 C 
ENDBRANCH  70  71
ENDBRANCH  67  70
ENDBRANCH  63  67
ENDBRANCH  62  65
BRANCH  62  74
ATOM     74  CB  LEU A   2     -28.276   5.549   3.972  0.00  0.00    +0.029 C 
BRANCH  74  75
ATOM     75  CG  LEU A   2     -28.920   6.701   4.693  0.00  0.00    +0.002 C 
ATOM     76  CD2 LEU A   2     -28.884   6.479   6.233  0.00  0.00    +0.000 C 
ATOM     77  CD1 LEU A   2     -30.432   6.745   4.199  0.00  0.00    +0.000 C 
ENDBRANCH  74  75
ENDBRANCH  62  74
ENDBRANCH  58  62
ENDBRANCH  57  59
BRANCH  57  78
ATOM     78  CB  ASP A   3     -23.240   2.748   3.993  0.00  0.00    +0.143 C 
BRANCH  78  79
ATOM     79  CG  ASP A   3     -22.341   1.918   3.290  0.00  0.00    +0.367 C 
ATOM     80  OD2 ASP A   3     -21.124   2.178   3.278  0.00  0.00    -0.246 OA
ATOM     81  OD1 ASP A   3     -22.796   0.899   2.698  0.00  0.00    -0.246 OA
ENDBRANCH  78  79
ENDBRANCH  57  78
ENDBRANCH  53  57
ENDBRANCH  52  55
BRANCH  52  82
ATOM     82  CB  THR A   4     -27.403  -1.609   3.267  0.00  0.00    +0.137 C 
ATOM     83  CG2 THR A   4     -28.650  -0.736   3.406  0.00  0.00    +0.034 C 
BRANCH  82  84
ATOM     84  OG1 THR A   4     -27.001  -1.685   1.893  0.00  0.00    -0.382 OA
ATOM     85  HG1 THR A   4     -26.226  -2.295   1.810  0.00  0.00    +0.210 HD
ENDBRANCH  82  84
ENDBRANCH  52  82
ENDBRANCH  48  52
ENDBRANCH  47  50
ENDBRANCH   1  47
TORSDOF 36
REMARK  Name = ../refined-set-2016/4yhq/4yhq_pocket.pdb
REMARK  217 active torsions:
REMARK  status: ('A' for Active; 'I' for Inactive)
REMARK    1  A    between atoms: _1  and  _3
REMARK    2  A    between atoms: _3  and  _4
REMARK    3  A    between atoms: _3  and  _6
REMARK    4  A    between atoms: _6  and  _7
REMARK    5  A    between atoms: _7  and  _8
REMARK    6  A    between atoms: _8  and  _9
REMARK    7  A    between atoms: _18  and  _20
REMARK    8  A    between atoms: _20  and  _21
REMARK    9  A    between atoms: _20  and  _23
REMARK   10  A    between atoms: _23  and  _24
REMARK   11  A    between atoms: _30  and  _32
REMARK   12  A    between atoms: _32  and  _33
REMARK   13  A    between atoms: _32  and  _35
REMARK   14  A    between atoms: _35  and  _36
REMARK   15  A    between atoms: _39  and  _41
REMARK   16  A    between atoms: _41  and  _42
REMARK   17  A    between atoms: _41  and  _44
REMARK   18  A    between atoms: _44  and  _45
REMARK   19  A    between atoms: _48  and  _50
REMARK   20  A    between atoms: _50  and  _51
REMARK   21  A    between atoms: _50  and  _53
REMARK   22  A    between atoms: _53  and  _54
REMARK   23  A    between atoms: _57  and  _59
REMARK   24  A    between atoms: _59  and  _60
REMARK   25  A    between atoms: _59  and  _62
REMARK   26  A    between atoms: _62  and  _63
REMARK   27  A    between atoms: _66  and  _68
REMARK   28  A    between atoms: _68  and  _69
REMARK   29  A    between atoms: _71  and  _73
REMARK   30  A    between atoms: _73  and  _74
REMARK   31  A    between atoms: _77  and  _79
REMARK   32  A    between atoms: _79  and  _80
REMARK   33  A    between atoms: _79  and  _82
REMARK   34  A    between atoms: _82  and  _83
REMARK   35  A    between atoms: _86  and  _88
REMARK   36  A    between atoms: _88  and  _89
REMARK   37  A    between atoms: _88  and  _91
REMARK   38  A    between atoms: _91  and  _92
REMARK   39  A    between atoms: _97  and  _99
REMARK   40  A    between atoms: _99  and  _100
REMARK   41  A    between atoms: _99  and  _102
REMARK   42  A    between atoms: _102  and  _103
REMARK   43  A    between atoms: _106  and  _108
REMARK   44  A    between atoms: _108  and  _109
REMARK   45  A    between atoms: _108  and  _111
REMARK   46  A    between atoms: _111  and  _112
REMARK   47  A    between atoms: _115  and  _117
REMARK   48  A    between atoms: _117  and  _118
REMARK   49  A    between atoms: _117  and  _120
REMARK   50  A    between atoms: _120  and  _121
REMARK   51  A    between atoms: _121  and  _122
REMARK   52  A    between atoms: _124  and  _126
REMARK   53  A    between atoms: _126  and  _127
REMARK   54  A    between atoms: _126  and  _129
REMARK   55  A    between atoms: _132  and  _134
REMARK   56  A    between atoms: _134  and  _135
REMARK   57  A    between atoms: _137  and  _139
REMARK   58  A    between atoms: _139  and  _140
REMARK   59  A    between atoms: _142  and  _144
REMARK   60  A    between atoms: _144  and  _145
REMARK   61  A    between atoms: _144  and  _147
REMARK   62  A    between atoms: _147  and  _148
REMARK   63  A    between atoms: _151  and  _153
REMARK   64  A    between atoms: _153  and  _154
REMARK   65  A    between atoms: _156  and  _158
REMARK   66  A    between atoms: _158  and  _159
REMARK   67  A    between atoms: _161  and  _163
REMARK   68  A    between atoms: _163  and  _164
REMARK   69  A    between atoms: _163  and  _166
REMARK   70  A    between atoms: _166  and  _167
REMARK   71  A    between atoms: _173  and  _175
REMARK   72  A    between atoms: _175  and  _176
REMARK   73  A    between atoms: _175  and  _178
REMARK   74  A    between atoms: _178  and  _179
REMARK   75  A    between atoms: _182  and  _184
REMARK   76  A    between atoms: _184  and  _185
REMARK   77  A    between atoms: _184  and  _187
REMARK   78  A    between atoms: _187  and  _188
REMARK   79  A    between atoms: _191  and  _193
REMARK   80  A    between atoms: _193  and  _194
REMARK   81  A    between atoms: _193  and  _196
REMARK   82  A    between atoms: _196  and  _197
REMARK   83  A    between atoms: _201  and  _202
REMARK   84  A    between atoms: _207  and  _209
REMARK   85  A    between atoms: _209  and  _210
REMARK   86  A    between atoms: _209  and  _212
REMARK   87  A    between atoms: _215  and  _217
REMARK   88  A    between atoms: _217  and  _218
REMARK   89  A    between atoms: _217  and  _220
REMARK   90  A    between atoms: _220  and  _221
REMARK   91  A    between atoms: _226  and  _228
REMARK   92  A    between atoms: _228  and  _229
REMARK   93  A    between atoms: _228  and  _231
REMARK   94  A    between atoms: _234  and  _236
REMARK   95  A    between atoms: _236  and  _237
REMARK   96  A    between atoms: _239  and  _241
REMARK   97  A    between atoms: _241  and  _242
REMARK   98  A    between atoms: _241  and  _244
REMARK   99  A    between atoms: _244  and  _245
REMARK  100  A    between atoms: _245  and  _246
REMARK  101  A    between atoms: _246  and  _247
REMARK  102  A    between atoms: _256  and  _258
REMARK  103  A    between atoms: _258  and  _259
REMARK  104  A    between atoms: _258  and  _261
REMARK  105  A    between atoms: _261  and  _262
REMARK  106  A    between atoms: _265  and  _267
REMARK  107  A    between atoms: _267  and  _268
REMARK  108  A    between atoms: _267  and  _270
REMARK  109  A    between atoms: _270  and  _271
REMARK  110  A    between atoms: _271  and  _272
REMARK  111  A    between atoms: _272  and  _273
REMARK  112  A    between atoms: _282  and  _284
REMARK  113  A    between atoms: _284  and  _285
REMARK  114  A    between atoms: _284  and  _287
REMARK  115  A    between atoms: _287  and  _288
REMARK  116  A    between atoms: _294  and  _296
REMARK  117  A    between atoms: _296  and  _297
REMARK  118  A    between atoms: _296  and  _299
REMARK  119  A    between atoms: _299  and  _300
REMARK  120  A    between atoms: _303  and  _305
REMARK  121  A    between atoms: _305  and  _306
REMARK  122  A    between atoms: _305  and  _308
REMARK  123  A    between atoms: _308  and  _309
REMARK  124  A    between atoms: _312  and  _314
REMARK  125  A    between atoms: _314  and  _315
REMARK  126  A    between atoms: _314  and  _317
REMARK  127  A    between atoms: _317  and  _318
REMARK  128  A    between atoms: _321  and  _323
REMARK  129  A    between atoms: _323  and  _324
REMARK  130  A    between atoms: _323  and  _326
REMARK  131  A    between atoms: _326  and  _327
REMARK  132  A    between atoms: _330  and  _332
REMARK  133  A    between atoms: _332  and  _333
REMARK  134  A    between atoms: _335  and  _337
REMARK  135  A    between atoms: _337  and  _338
REMARK  136  A    between atoms: _341  and  _343
REMARK  137  A    between atoms: _343  and  _344
REMARK  138  A    between atoms: _343  and  _346
REMARK  139  A    between atoms: _346  and  _347
REMARK  140  A    between atoms: _350  and  _352
REMARK  141  A    between atoms: _352  and  _353
REMARK  142  A    between atoms: _352  and  _355
REMARK  143  A    between atoms: _355  and  _356
REMARK  144  A    between atoms: _361  and  _363
REMARK  145  A    between atoms: _363  and  _364
REMARK  146  A    between atoms: _363  and  _366
REMARK  147  A    between atoms: _366  and  _367
REMARK  148  A    between atoms: _370  and  _372
REMARK  149  A    between atoms: _372  and  _373
REMARK  150  A    between atoms: _372  and  _375
REMARK  151  A    between atoms: _375  and  _376
REMARK  152  A    between atoms: _379  and  _381
REMARK  153  A    between atoms: _381  and  _382
REMARK  154  A    between atoms: _381  and  _384
REMARK  155  A    between atoms: _384  and  _385
REMARK  156  A    between atoms: _385  and  _386
REMARK  157  A    between atoms: _388  and  _390
REMARK  158  A    between atoms: _390  and  _391
REMARK  159  A    between atoms: _390  and  _393
REMARK  160  A    between atoms: _396  and  _398
REMARK  161  A    between atoms: _398  and  _399
REMARK  162  A    between atoms: _401  and  _403
REMARK  163  A    between atoms: _403  and  _404
REMARK  164  A    between atoms: _406  and  _408
REMARK  165  A    between atoms: _408  and  _409
REMARK  166  A    between atoms: _408  and  _411
REMARK  167  A    between atoms: _411  and  _412
REMARK  168  A    between atoms: _415  and  _417
REMARK  169  A    between atoms: _417  and  _418
REMARK  170  A    between atoms: _420  and  _422
REMARK  171  A    between atoms: _422  and  _423
REMARK  172  A    between atoms: _425  and  _427
REMARK  173  A    between atoms: _427  and  _428
REMARK  174  A    between atoms: _427  and  _430
REMARK  175  A    between atoms: _430  and  _431
REMARK  176  A    between atoms: _437  and  _439
REMARK  177  A    between atoms: _439  and  _440
REMARK  178  A    between atoms: _439  and  _442
REMARK  179  A    between atoms: _442  and  _443
REMARK  180  A    between atoms: _446  and  _448
REMARK  181  A    between atoms: _448  and  _449
REMARK  182  A    between atoms: _448  and  _451
REMARK  183  A    between atoms: _454  and  _456
REMARK  184  A    between atoms: _456  and  _457
REMARK  185  A    between atoms: _456  and  _459
REMARK  186  A    between atoms: _459  and  _460
REMARK  187  A    between atoms: _463  and  _465
REMARK  188  A    between atoms: _465  and  _466
REMARK  189  A    between atoms: _465  and  _468
REMARK  190  A    between atoms: _468  and  _469
REMARK  191  A    between atoms: _473  and  _474
REMARK  192  A    between atoms: _479  and  _481
REMARK  193  A    between atoms: _481  and  _482
REMARK  194  A    between atoms: _481  and  _484
REMARK  195  A    between atoms: _487  and  _489
REMARK  196  A    between atoms: _489  and  _490
REMARK  197  A    between atoms: _489  and  _492
REMARK  198  A    between atoms: _492  and  _493
REMARK  199  A    between atoms: _498  and  _500
REMARK  200  A    between atoms: _500  and  _501
REMARK  201  A    between atoms: _500  and  _503
REMARK  202  A    between atoms: _506  and  _508
REMARK  203  A    between atoms: _508  and  _509
REMARK  204  A    between atoms: _508  and  _511
REMARK  205  A    between atoms: _511  and  _512
REMARK  206  A    between atoms: _515  and  _517
REMARK  207  A    between atoms: _517  and  _518
REMARK  208  A    between atoms: _520  and  _522
REMARK  209  A    between atoms: _522  and  _523
REMARK  210  A    between atoms: _522  and  _525
REMARK  211  A    between atoms: _525  and  _526
REMARK  212  A    between atoms: _526  and  _527
REMARK  213  A    between atoms: _527  and  _528
REMARK  214  A    between atoms: _537  and  _539
REMARK  215  A    between atoms: _539  and  _540
REMARK  216  A    between atoms: _539  and  _542
REMARK  217  A    between atoms: _542  and  _543
REMARK                            x       y       z     vdW  Elec       q    Type
REMARK                         _______ _______ _______ _____ _____    ______ ____
ROOT
ATOM      1  CA  ILE A   5     -12.155  -2.512  -0.521  0.00  0.00    +0.149 C 
ENDROOT
BRANCH   1   4
ATOM      2  C   GLY A   4     -12.218  -2.907   1.870  0.00  0.00    +0.243 C 
ATOM      3  O   GLY A   4     -11.170  -3.543   1.863  0.00  0.00    -0.273 OA
ATOM      4  N   ILE A   5     -12.776  -2.462   0.770  0.00  0.00    -0.297 N 
ATOM      5  H   ILE A   5     -13.727  -2.047   0.838  0.00  0.00    +0.150 HD
BRANCH   2   6
ATOM      6  CA  GLY A   4     -12.993  -2.603   3.111  0.00  0.00    +0.176 C 
BRANCH   6   9
ATOM      7  C   GLY A   3     -12.691  -3.089   5.420  0.00  0.00    +0.243 C 
ATOM      8  O   GLY A   3     -13.893  -3.245   5.555  0.00  0.00    -0.273 OA
ATOM      9  N   GLY A   4     -12.145  -2.678   4.273  0.00  0.00    -0.295 N 
ATOM     10  H   GLY A   4     -11.139  -2.420   4.220  0.00  0.00    +0.150 HD
BRANCH   7  11
ATOM     11  CA  GLY A   3     -11.764  -3.293   6.577  0.00  0.00    +0.176 C 
BRANCH  11  14
ATOM     12  C   VAL A   2     -11.714  -1.764   8.441  0.00  0.00    +0.241 C 
ATOM     13  O   VAL A   2     -10.769  -1.152   7.952  0.00  0.00    -0.273 OA
ATOM     14  N   GLY A   3     -12.284  -2.782   7.826  0.00  0.00    -0.295 N 
ATOM     15  H   GLY A   3     -13.124  -3.226   8.248  0.00  0.00    +0.150 HD
BRANCH  12  16
ATOM     16  CA  VAL A   2     -12.270  -1.420   9.822  0.00  0.00    +0.148 C 
BRANCH  16  19
ATOM     17  C   MET A   1     -10.977  -1.535  11.994  0.00  0.00    +0.238 C 
ATOM     18  O   MET A   1     -11.703  -2.394  12.539  0.00  0.00    -0.274 OA
ATOM     19  N   VAL A   2     -11.202  -1.015  10.767  0.00  0.00    -0.297 N 
ATOM     20  H   VAL A   2     -10.563  -0.256  10.455  0.00  0.00    +0.150 HD
BRANCH  17  21
ATOM     21  CA  MET A   1      -9.684  -1.080  12.683  0.00  0.00    +0.146 C 
BRANCH  21  22
ATOM     22  N   MET A   1      -9.939  -1.076  14.089  0.00  0.00    -0.238 NA
ATOM     23  H   MET A   1     -10.324  -1.937  14.527  0.00  0.00    +0.142 HD
ENDBRANCH  21  22
BRANCH  21  24
ATOM     24  CB  MET A   1      -8.606  -2.091  12.382  0.00  0.00    +0.038 C 
BRANCH  24  25
ATOM     25  CG  MET A   1      -7.943  -2.711  13.632  0.00  0.00    +0.060 C 
BRANCH  25  26
ATOM     26  SD  MET A   1      -6.615  -1.552  13.965  0.00  0.00    -0.139 S 
ATOM     27  CE  MET A   1      -5.348  -2.186  12.900  0.00  0.00    +0.069 C 
ENDBRANCH  25  26
ENDBRANCH  24  25
ENDBRANCH  21  24
ENDBRANCH  17  21
ENDBRANCH  16  19
BRANCH  16  28
ATOM     28  CB  VAL A   2     -13.351  -0.308   9.764  0.00  0.00    +0.027 C 
ATOM     29  CG2 VAL A   2     -14.442  -0.691  10.686  0.00  0.00    +0.002 C 
ATOM     30  CG1 VAL A   2     -12.674   1.074  10.297  0.00  0.00    +0.002 C 
ENDBRANCH  16  28
ENDBRANCH  12  16
ENDBRANCH  11  14
ENDBRANCH   7  11
ENDBRANCH   6   9
ENDBRANCH   2   6
ENDBRANCH   1   4
BRANCH   1  31
ATOM     31  C   ILE A   5     -10.898  -1.699  -0.403  0.00  0.00    +0.241 C 
ATOM     32  O   ILE A   5     -10.896  -0.489   0.022  0.00  0.00    -0.273 OA
ATOM     33  N   GLY A   6      -9.855  -2.439  -0.743  0.00  0.00    -0.295 N 
ATOM     34  H   GLY A   6     -10.056  -3.375  -1.150  0.00  0.00    +0.150 HD
BRANCH  33  35
ATOM     35  CA  GLY A   6      -8.483  -2.079  -0.606  0.00  0.00    +0.176 C 
BRANCH  35  36
ATOM     36  C   GLY A   6      -7.737  -1.727   0.667  0.00  0.00    +0.243 C 
ATOM     37  N   GLY A   7      -8.207  -2.139   1.830  0.00  0.00    -0.295 N 
ATOM     38  H   GLY A   7      -9.102  -2.667   1.883  0.00  0.00    +0.150 HD
ATOM     39  O   GLY A   6      -6.665  -1.082   0.588  0.00  0.00    -0.273 OA
BRANCH  37  40
ATOM     40  CA  GLY A   7      -7.437  -1.836   3.056  0.00  0.00    +0.176 C 
BRANCH  40  41
ATOM     41  C   GLY A   7      -8.233  -1.782   4.366  0.00  0.00    +0.243 C 
ATOM     42  N   PHE A   8      -7.542  -1.922   5.552  0.00  0.00    -0.297 N 
ATOM     43  H   PHE A   8      -6.562  -2.264   5.489  0.00  0.00    +0.150 HD
ATOM     44  O   GLY A   7      -9.473  -1.729   4.278  0.00  0.00    -0.273 OA
BRANCH  42  45
ATOM     45  CA  PHE A   8      -8.074  -1.626   6.931  0.00  0.00    +0.153 C 
BRANCH  45  46
ATOM     46  C   PHE A   8      -7.653  -0.188   7.342  0.00  0.00    +0.241 C 
ATOM     47  N   LEU A   9      -8.461   0.404   8.191  0.00  0.00    -0.298 N 
ATOM     48  H   LEU A   9      -9.296  -0.100   8.550  0.00  0.00    +0.150 HD
ATOM     49  O   PHE A   8      -6.628   0.391   6.891  0.00  0.00    -0.273 OA
BRANCH  47  50
ATOM     50  CA  LEU A   9      -8.194   1.743   8.623  0.00  0.00    +0.137 C 
BRANCH  50  51
ATOM     51  C   LEU A   9      -8.181   1.741  10.105  0.00  0.00    +0.227 C 
ATOM     52  O   LEU A   9      -8.667   0.843  10.814  0.00  0.00    -0.286 OA
ENDBRANCH  50  51
BRANCH  50  53
ATOM     53  CB  LEU A   9      -9.275   2.692   8.071  0.00  0.00    +0.028 C 
BRANCH  53  54
ATOM     54  CG  LEU A   9      -9.624   3.990   8.820  0.00  0.00    +0.002 C 
ATOM     55  CD2 LEU A   9     -11.124   4.237   8.825  0.00  0.00    +0.000 C 
ATOM     56  CD1 LEU A   9      -8.964   5.194   8.186  0.00  0.00    +0.000 C 
ENDBRANCH  53  54
ENDBRANCH  50  53
ENDBRANCH  47  50
ENDBRANCH  45  46
BRANCH  45  57
ATOM     57  CB  PHE A   8      -7.716  -2.643   8.081  0.00  0.00    +0.055 C 
BRANCH  57  58
ATOM     58  CG  PHE A   8      -8.675  -3.969   8.264  0.00  0.00    -0.020 A 
ATOM     59  CD2 PHE A   8      -9.478  -4.136   9.447  0.00  0.00    -0.004 A 
ATOM     60  CE2 PHE A   8     -10.373  -5.294   9.693  0.00  0.00    -0.000 A 
ATOM     61  CZ  PHE A   8     -10.422  -6.310   8.709  0.00  0.00    -0.000 A 
ATOM     62  CE1 PHE A   8      -9.528  -6.246   7.602  0.00  0.00    -0.000 A 
ATOM     63  CD1 PHE A   8      -8.637  -5.101   7.355  0.00  0.00    -0.004 A 
ENDBRANCH  57  58
ENDBRANCH  45  57
ENDBRANCH  42  45
ENDBRANCH  40  41
ENDBRANCH  37  40
ENDBRANCH  35  36
ENDBRANCH  33  35
ENDBRANCH   1  31
BRANCH   1  64
ATOM     64  CB  ILE A   5     -13.087  -2.002  -1.640  0.00  0.00    +0.027 C 
ATOM     65  CG2 ILE A   5     -12.378  -1.650  -2.903  0.00  0.00    +0.002 C 
BRANCH  64  66
ATOM     66  CG1 ILE A   5     -14.090  -3.100  -1.985  0.00  0.00    +0.002 C 
ATOM     67  CD1 ILE A   5     -15.328  -2.557  -2.608  0.00  0.00    +0.000 C 
ENDBRANCH  64  66
ENDBRANCH   1  64
TORSDOF 28
REMARK  Name = ../refined-set-2016/4yhq/4yhq_pocket.pdb
REMARK  217 active torsions:
REMARK  status: ('A' for Active; 'I' for Inactive)
REMARK    1  A    between atoms: _1  and  _3
REMARK    2  A    between atoms: _3  and  _4
REMARK    3  A    between atoms: _3  and  _6
REMARK    4  A    between atoms: _6  and  _7
REMARK    5  A    between atoms: _7  and  _8
REMARK    6  A    between atoms: _8  and  _9
REMARK    7  A    between atoms: _18  and  _20
REMARK    8  A    between atoms: _20  and  _21
REMARK    9  A    between atoms: _20  and  _23
REMARK   10  A    between atoms: _23  and  _24
REMARK   11  A    between atoms: _30  and  _32
REMARK   12  A    between atoms: _32  and  _33
REMARK   13  A    between atoms: _32  and  _35
REMARK   14  A    between atoms: _35  and  _36
REMARK   15  A    between atoms: _39  and  _41
REMARK   16  A    between atoms: _41  and  _42
REMARK   17  A    between atoms: _41  and  _44
REMARK   18  A    between atoms: _44  and  _45
REMARK   19  A    between atoms: _48  and  _50
REMARK   20  A    between atoms: _50  and  _51
REMARK   21  A    between atoms: _50  and  _53
REMARK   22  A    between atoms: _53  and  _54
REMARK   23  A    between atoms: _57  and  _59
REMARK   24  A    between atoms: _59  and  _60
REMARK   25  A    between atoms: _59  and  _62
REMARK   26  A    between atoms: _62  and  _63
REMARK   27  A    between atoms: _66  and  _68
REMARK   28  A    between atoms: _68  and  _69
REMARK   29  A    between atoms: _71  and  _73
REMARK   30  A    between atoms: _73  and  _74
REMARK   31  A    between atoms: _77  and  _79
REMARK   32  A    between atoms: _79  and  _80
REMARK   33  A    between atoms: _79  and  _82
REMARK   34  A    between atoms: _82  and  _83
REMARK   35  A    between atoms: _86  and  _88
REMARK   36  A    between atoms: _88  and  _89
REMARK   37  A    between atoms: _88  and  _91
REMARK   38  A    between atoms: _91  and  _92
REMARK   39  A    between atoms: _97  and  _99
REMARK   40  A    between atoms: _99  and  _100
REMARK   41  A    between atoms: _99  and  _102
REMARK   42  A    between atoms: _102  and  _103
REMARK   43  A    between atoms: _106  and  _108
REMARK   44  A    between atoms: _108  and  _109
REMARK   45  A    between atoms: _108  and  _111
REMARK   46  A    between atoms: _111  and  _112
REMARK   47  A    between atoms: _115  and  _117
REMARK   48  A    between atoms: _117  and  _118
REMARK   49  A    between atoms: _117  and  _120
REMARK   50  A    between atoms: _120  and  _121
REMARK   51  A    between atoms: _121  and  _122
REMARK   52  A    between atoms: _124  and  _126
REMARK   53  A    between atoms: _126  and  _127
REMARK   54  A    between atoms: _126  and  _129
REMARK   55  A    between atoms: _132  and  _134
REMARK   56  A    between atoms: _134  and  _135
REMARK   57  A    between atoms: _137  and  _139
REMARK   58  A    between atoms: _139  and  _140
REMARK   59  A    between atoms: _142  and  _144
REMARK   60  A    between atoms: _144  and  _145
REMARK   61  A    between atoms: _144  and  _147
REMARK   62  A    between atoms: _147  and  _148
REMARK   63  A    between atoms: _151  and  _153
REMARK   64  A    between atoms: _153  and  _154
REMARK   65  A    between atoms: _156  and  _158
REMARK   66  A    between atoms: _158  and  _159
REMARK   67  A    between atoms: _161  and  _163
REMARK   68  A    between atoms: _163  and  _164
REMARK   69  A    between atoms: _163  and  _166
REMARK   70  A    between atoms: _166  and  _167
REMARK   71  A    between atoms: _173  and  _175
REMARK   72  A    between atoms: _175  and  _176
REMARK   73  A    between atoms: _175  and  _178
REMARK   74  A    between atoms: _178  and  _179
REMARK   75  A    between atoms: _182  and  _184
REMARK   76  A    between atoms: _184  and  _185
REMARK   77  A    between atoms: _184  and  _187
REMARK   78  A    between atoms: _187  and  _188
REMARK   79  A    between atoms: _191  and  _193
REMARK   80  A    between atoms: _193  and  _194
REMARK   81  A    between atoms: _193  and  _196
REMARK   82  A    between atoms: _196  and  _197
REMARK   83  A    between atoms: _201  and  _202
REMARK   84  A    between atoms: _207  and  _209
REMARK   85  A    between atoms: _209  and  _210
REMARK   86  A    between atoms: _209  and  _212
REMARK   87  A    between atoms: _215  and  _217
REMARK   88  A    between atoms: _217  and  _218
REMARK   89  A    between atoms: _217  and  _220
REMARK   90  A    between atoms: _220  and  _221
REMARK   91  A    between atoms: _226  and  _228
REMARK   92  A    between atoms: _228  and  _229
REMARK   93  A    between atoms: _228  and  _231
REMARK   94  A    between atoms: _234  and  _236
REMARK   95  A    between atoms: _236  and  _237
REMARK   96  A    between atoms: _239  and  _241
REMARK   97  A    between atoms: _241  and  _242
REMARK   98  A    between atoms: _241  and  _244
REMARK   99  A    between atoms: _244  and  _245
REMARK  100  A    between atoms: _245  and  _246
REMARK  101  A    between atoms: _246  and  _247
REMARK  102  A    between atoms: _256  and  _258
REMARK  103  A    between atoms: _258  and  _259
REMARK  104  A    between atoms: _258  and  _261
REMARK  105  A    between atoms: _261  and  _262
REMARK  106  A    between atoms: _265  and  _267
REMARK  107  A    between atoms: _267  and  _268
REMARK  108  A    between atoms: _267  and  _270
REMARK  109  A    between atoms: _270  and  _271
REMARK  110  A    between atoms: _271  and  _272
REMARK  111  A    between atoms: _272  and  _273
REMARK  112  A    between atoms: _282  and  _284
REMARK  113  A    between atoms: _284  and  _285
REMARK  114  A    between atoms: _284  and  _287
REMARK  115  A    between atoms: _287  and  _288
REMARK  116  A    between atoms: _294  and  _296
REMARK  117  A    between atoms: _296  and  _297
REMARK  118  A    between atoms: _296  and  _299
REMARK  119  A    between atoms: _299  and  _300
REMARK  120  A    between atoms: _303  and  _305
REMARK  121  A    between atoms: _305  and  _306
REMARK  122  A    between atoms: _305  and  _308
REMARK  123  A    between atoms: _308  and  _309
REMARK  124  A    between atoms: _312  and  _314
REMARK  125  A    between atoms: _314  and  _315
REMARK  126  A    between atoms: _314  and  _317
REMARK  127  A    between atoms: _317  and  _318
REMARK  128  A    between atoms: _321  and  _323
REMARK  129  A    between atoms: _323  and  _324
REMARK  130  A    between atoms: _323  and  _326
REMARK  131  A    between atoms: _326  and  _327
REMARK  132  A    between atoms: _330  and  _332
REMARK  133  A    between atoms: _332  and  _333
REMARK  134  A    between atoms: _335  and  _337
REMARK  135  A    between atoms: _337  and  _338
REMARK  136  A    between atoms: _341  and  _343
REMARK  137  A    between atoms: _343  and  _344
REMARK  138  A    between atoms: _343  and  _346
REMARK  139  A    between atoms: _346  and  _347
REMARK  140  A    between atoms: _350  and  _352
REMARK  141  A    between atoms: _352  and  _353
REMARK  142  A    between atoms: _352  and  _355
REMARK  143  A    between atoms: _355  and  _356
REMARK  144  A    between atoms: _361  and  _363
REMARK  145  A    between atoms: _363  and  _364
REMARK  146  A    between atoms: _363  and  _366
REMARK  147  A    between atoms: _366  and  _367
REMARK  148  A    between atoms: _370  and  _372
REMARK  149  A    between atoms: _372  and  _373
REMARK  150  A    between atoms: _372  and  _375
REMARK  151  A    between atoms: _375  and  _376
REMARK  152  A    between atoms: _379  and  _381
REMARK  153  A    between atoms: _381  and  _382
REMARK  154  A    between atoms: _381  and  _384
REMARK  155  A    between atoms: _384  and  _385
REMARK  156  A    between atoms: _385  and  _386
REMARK  157  A    between atoms: _388  and  _390
REMARK  158  A    between atoms: _390  and  _391
REMARK  159  A    between atoms: _390  and  _393
REMARK  160  A    between atoms: _396  and  _398
REMARK  161  A    between atoms: _398  and  _399
REMARK  162  A    between atoms: _401  and  _403
REMARK  163  A    between atoms: _403  and  _404
REMARK  164  A    between atoms: _406  and  _408
REMARK  165  A    between atoms: _408  and  _409
REMARK  166  A    between atoms: _408  and  _411
REMARK  167  A    between atoms: _411  and  _412
REMARK  168  A    between atoms: _415  and  _417
REMARK  169  A    between atoms: _417  and  _418
REMARK  170  A    between atoms: _420  and  _422
REMARK  171  A    between atoms: _422  and  _423
REMARK  172  A    between atoms: _425  and  _427
REMARK  173  A    between atoms: _427  and  _428
REMARK  174  A    between atoms: _427  and  _430
REMARK  175  A    between atoms: _430  and  _431
REMARK  176  A    between atoms: _437  and  _439
REMARK  177  A    between atoms: _439  and  _440
REMARK  178  A    between atoms: _439  and  _442
REMARK  179  A    between atoms: _442  and  _443
REMARK  180  A    between atoms: _446  and  _448
REMARK  181  A    between atoms: _448  and  _449
REMARK  182  A    between atoms: _448  and  _451
REMARK  183  A    between atoms: _454  and  _456
REMARK  184  A    between atoms: _456  and  _457
REMARK  185  A    between atoms: _456  and  _459
REMARK  186  A    between atoms: _459  and  _460
REMARK  187  A    between atoms: _463  and  _465
REMARK  188  A    between atoms: _465  and  _466
REMARK  189  A    between atoms: _465  and  _468
REMARK  190  A    between atoms: _468  and  _469
REMARK  191  A    between atoms: _473  and  _474
REMARK  192  A    between atoms: _479  and  _481
REMARK  193  A    between atoms: _481  and  _482
REMARK  194  A    between atoms: _481  and  _484
REMARK  195  A    between atoms: _487  and  _489
REMARK  196  A    between atoms: _489  and  _490
REMARK  197  A    between atoms: _489  and  _492
REMARK  198  A    between atoms: _492  and  _493
REMARK  199  A    between atoms: _498  and  _500
REMARK  200  A    between atoms: _500  and  _501
REMARK  201  A    between atoms: _500  and  _503
REMARK  202  A    between atoms: _506  and  _508
REMARK  203  A    between atoms: _508  and  _509
REMARK  204  A    between atoms: _508  and  _511
REMARK  205  A    between atoms: _511  and  _512
REMARK  206  A    between atoms: _515  and  _517
REMARK  207  A    between atoms: _517  and  _518
REMARK  208  A    between atoms: _520  and  _522
REMARK  209  A    between atoms: _522  and  _523
REMARK  210  A    between atoms: _522  and  _525
REMARK  211  A    between atoms: _525  and  _526
REMARK  212  A    between atoms: _526  and  _527
REMARK  213  A    between atoms: _527  and  _528
REMARK  214  A    between atoms: _537  and  _539
REMARK  215  A    between atoms: _539  and  _540
REMARK  216  A    between atoms: _539  and  _542
REMARK  217  A    between atoms: _542  and  _543
REMARK                            x       y       z     vdW  Elec       q    Type
REMARK                         _______ _______ _______ _____ _____    ______ ____
ROOT
ATOM      1  CA  LEU A   1     -16.117   5.305  15.006  0.00  0.00    +0.133 C 
ENDROOT
BRANCH   1   2
ATOM      2  N   LEU A   1     -17.524   5.371  15.324  0.00  0.00    -0.239 NA
ATOM      3  H   LEU A   1     -18.211   5.093  14.595  0.00  0.00    +0.142 HD
ENDBRANCH   1   2
BRANCH   1   4
ATOM      4  C   LEU A   1     -15.677   6.602  14.331  0.00  0.00    +0.224 C 
ATOM      5  O   LEU A   1     -16.451   7.231  13.586  0.00  0.00    -0.287 OA
ENDBRANCH   1   4
BRANCH   1   6
ATOM      6  CB  LEU A   1     -15.817   4.172  14.012  0.00  0.00    +0.025 C 
BRANCH   6   7
ATOM      7  CG  LEU A   1     -16.359   2.814  14.526  0.00  0.00    +0.002 C 
ATOM      8  CD2 LEU A   1     -15.636   2.387  15.796  0.00  0.00    +0.000 C 
ATOM      9  CD1 LEU A   1     -16.148   1.797  13.366  0.00  0.00    +0.000 C 
ENDBRANCH   6   7
ENDBRANCH   1   6
TORSDOF 4
REMARK  Name = ../refined-set-2016/4yhq/4yhq_pocket.pdb
REMARK  217 active torsions:
REMARK  status: ('A' for Active; 'I' for Inactive)
REMARK    1  A    between atoms: _1  and  _3
REMARK    2  A    between atoms: _3  and  _4
REMARK    3  A    between atoms: _3  and  _6
REMARK    4  A    between atoms: _6  and  _7
REMARK    5  A    between atoms: _7  and  _8
REMARK    6  A    between atoms: _8  and  _9
REMARK    7  A    between atoms: _18  and  _20
REMARK    8  A    between atoms: _20  and  _21
REMARK    9  A    between atoms: _20  and  _23
REMARK   10  A    between atoms: _23  and  _24
REMARK   11  A    between atoms: _30  and  _32
REMARK   12  A    between atoms: _32  and  _33
REMARK   13  A    between atoms: _32  and  _35
REMARK   14  A    between atoms: _35  and  _36
REMARK   15  A    between atoms: _39  and  _41
REMARK   16  A    between atoms: _41  and  _42
REMARK   17  A    between atoms: _41  and  _44
REMARK   18  A    between atoms: _44  and  _45
REMARK   19  A    between atoms: _48  and  _50
REMARK   20  A    between atoms: _50  and  _51
REMARK   21  A    between atoms: _50  and  _53
REMARK   22  A    between atoms: _53  and  _54
REMARK   23  A    between atoms: _57  and  _59
REMARK   24  A    between atoms: _59  and  _60
REMARK   25  A    between atoms: _59  and  _62
REMARK   26  A    between atoms: _62  and  _63
REMARK   27  A    between atoms: _66  and  _68
REMARK   28  A    between atoms: _68  and  _69
REMARK   29  A    between atoms: _71  and  _73
REMARK   30  A    between atoms: _73  and  _74
REMARK   31  A    between atoms: _77  and  _79
REMARK   32  A    between atoms: _79  and  _80
REMARK   33  A    between atoms: _79  and  _82
REMARK   34  A    between atoms: _82  and  _83
REMARK   35  A    between atoms: _86  and  _88
REMARK   36  A    between atoms: _88  and  _89
REMARK   37  A    between atoms: _88  and  _91
REMARK   38  A    between atoms: _91  and  _92
REMARK   39  A    between atoms: _97  and  _99
REMARK   40  A    between atoms: _99  and  _100
REMARK   41  A    between atoms: _99  and  _102
REMARK   42  A    between atoms: _102  and  _103
REMARK   43  A    between atoms: _106  and  _108
REMARK   44  A    between atoms: _108  and  _109
REMARK   45  A    between atoms: _108  and  _111
REMARK   46  A    between atoms: _111  and  _112
REMARK   47  A    between atoms: _115  and  _117
REMARK   48  A    between atoms: _117  and  _118
REMARK   49  A    between atoms: _117  and  _120
REMARK   50  A    between atoms: _120  and  _121
REMARK   51  A    between atoms: _121  and  _122
REMARK   52  A    between atoms: _124  and  _126
REMARK   53  A    between atoms: _126  and  _127
REMARK   54  A    between atoms: _126  and  _129
REMARK   55  A    between atoms: _132  and  _134
REMARK   56  A    between atoms: _134  and  _135
REMARK   57  A    between atoms: _137  and  _139
REMARK   58  A    between atoms: _139  and  _140
REMARK   59  A    between atoms: _142  and  _144
REMARK   60  A    between atoms: _144  and  _145
REMARK   61  A    between atoms: _144  and  _147
REMARK   62  A    between atoms: _147  and  _148
REMARK   63  A    between atoms: _151  and  _153
REMARK   64  A    between atoms: _153  and  _154
REMARK   65  A    between atoms: _156  and  _158
REMARK   66  A    between atoms: _158  and  _159
REMARK   67  A    between atoms: _161  and  _163
REMARK   68  A    between atoms: _163  and  _164
REMARK   69  A    between atoms: _163  and  _166
REMARK   70  A    between atoms: _166  and  _167
REMARK   71  A    between atoms: _173  and  _175
REMARK   72  A    between atoms: _175  and  _176
REMARK   73  A    between atoms: _175  and  _178
REMARK   74  A    between atoms: _178  and  _179
REMARK   75  A    between atoms: _182  and  _184
REMARK   76  A    between atoms: _184  and  _185
REMARK   77  A    between atoms: _184  and  _187
REMARK   78  A    between atoms: _187  and  _188
REMARK   79  A    between atoms: _191  and  _193
REMARK   80  A    between atoms: _193  and  _194
REMARK   81  A    between atoms: _193  and  _196
REMARK   82  A    between atoms: _196  and  _197
REMARK   83  A    between atoms: _201  and  _202
REMARK   84  A    between atoms: _207  and  _209
REMARK   85  A    between atoms: _209  and  _210
REMARK   86  A    between atoms: _209  and  _212
REMARK   87  A    between atoms: _215  and  _217
REMARK   88  A    between atoms: _217  and  _218
REMARK   89  A    between atoms: _217  and  _220
REMARK   90  A    between atoms: _220  and  _221
REMARK   91  A    between atoms: _226  and  _228
REMARK   92  A    between atoms: _228  and  _229
REMARK   93  A    between atoms: _228  and  _231
REMARK   94  A    between atoms: _234  and  _236
REMARK   95  A    between atoms: _236  and  _237
REMARK   96  A    between atoms: _239  and  _241
REMARK   97  A    between atoms: _241  and  _242
REMARK   98  A    between atoms: _241  and  _244
REMARK   99  A    between atoms: _244  and  _245
REMARK  100  A    between atoms: _245  and  _246
REMARK  101  A    between atoms: _246  and  _247
REMARK  102  A    between atoms: _256  and  _258
REMARK  103  A    between atoms: _258  and  _259
REMARK  104  A    between atoms: _258  and  _261
REMARK  105  A    between atoms: _261  and  _262
REMARK  106  A    between atoms: _265  and  _267
REMARK  107  A    between atoms: _267  and  _268
REMARK  108  A    between atoms: _267  and  _270
REMARK  109  A    between atoms: _270  and  _271
REMARK  110  A    between atoms: _271  and  _272
REMARK  111  A    between atoms: _272  and  _273
REMARK  112  A    between atoms: _282  and  _284
REMARK  113  A    between atoms: _284  and  _285
REMARK  114  A    between atoms: _284  and  _287
REMARK  115  A    between atoms: _287  and  _288
REMARK  116  A    between atoms: _294  and  _296
REMARK  117  A    between atoms: _296  and  _297
REMARK  118  A    between atoms: _296  and  _299
REMARK  119  A    between atoms: _299  and  _300
REMARK  120  A    between atoms: _303  and  _305
REMARK  121  A    between atoms: _305  and  _306
REMARK  122  A    between atoms: _305  and  _308
REMARK  123  A    between atoms: _308  and  _309
REMARK  124  A    between atoms: _312  and  _314
REMARK  125  A    between atoms: _314  and  _315
REMARK  126  A    between atoms: _314  and  _317
REMARK  127  A    between atoms: _317  and  _318
REMARK  128  A    between atoms: _321  and  _323
REMARK  129  A    between atoms: _323  and  _324
REMARK  130  A    between atoms: _323  and  _326
REMARK  131  A    between atoms: _326  and  _327
REMARK  132  A    between atoms: _330  and  _332
REMARK  133  A    between atoms: _332  and  _333
REMARK  134  A    between atoms: _335  and  _337
REMARK  135  A    between atoms: _337  and  _338
REMARK  136  A    between atoms: _341  and  _343
REMARK  137  A    between atoms: _343  and  _344
REMARK  138  A    between atoms: _343  and  _346
REMARK  139  A    between atoms: _346  and  _347
REMARK  140  A    between atoms: _350  and  _352
REMARK  141  A    between atoms: _352  and  _353
REMARK  142  A    between atoms: _352  and  _355
REMARK  143  A    between atoms: _355  and  _356
REMARK  144  A    between atoms: _361  and  _363
REMARK  145  A    between atoms: _363  and  _364
REMARK  146  A    between atoms: _363  and  _366
REMARK  147  A    between atoms: _366  and  _367
REMARK  148  A    between atoms: _370  and  _372
REMARK  149  A    between atoms: _372  and  _373
REMARK  150  A    between atoms: _372  and  _375
REMARK  151  A    between atoms: _375  and  _376
REMARK  152  A    between atoms: _379  and  _381
REMARK  153  A    between atoms: _381  and  _382
REMARK  154  A    between atoms: _381  and  _384
REMARK  155  A    between atoms: _384  and  _385
REMARK  156  A    between atoms: _385  and  _386
REMARK  157  A    between atoms: _388  and  _390
REMARK  158  A    between atoms: _390  and  _391
REMARK  159  A    between atoms: _390  and  _393
REMARK  160  A    between atoms: _396  and  _398
REMARK  161  A    between atoms: _398  and  _399
REMARK  162  A    between atoms: _401  and  _403
REMARK  163  A    between atoms: _403  and  _404
REMARK  164  A    between atoms: _406  and  _408
REMARK  165  A    between atoms: _408  and  _409
REMARK  166  A    between atoms: _408  and  _411
REMARK  167  A    between atoms: _411  and  _412
REMARK  168  A    between atoms: _415  and  _417
REMARK  169  A    between atoms: _417  and  _418
REMARK  170  A    between atoms: _420  and  _422
REMARK  171  A    between atoms: _422  and  _423
REMARK  172  A    between atoms: _425  and  _427
REMARK  173  A    between atoms: _427  and  _428
REMARK  174  A    between atoms: _427  and  _430
REMARK  175  A    between atoms: _430  and  _431
REMARK  176  A    between atoms: _437  and  _439
REMARK  177  A    between atoms: _439  and  _440
REMARK  178  A    between atoms: _439  and  _442
REMARK  179  A    between atoms: _442  and  _443
REMARK  180  A    between atoms: _446  and  _448
REMARK  181  A    between atoms: _448  and  _449
REMARK  182  A    between atoms: _448  and  _451
REMARK  183  A    between atoms: _454  and  _456
REMARK  184  A    between atoms: _456  and  _457
REMARK  185  A    between atoms: _456  and  _459
REMARK  186  A    between atoms: _459  and  _460
REMARK  187  A    between atoms: _463  and  _465
REMARK  188  A    between atoms: _465  and  _466
REMARK  189  A    between atoms: _465  and  _468
REMARK  190  A    between atoms: _468  and  _469
REMARK  191  A    between atoms: _473  and  _474
REMARK  192  A    between atoms: _479  and  _481
REMARK  193  A    between atoms: _481  and  _482
REMARK  194  A    between atoms: _481  and  _484
REMARK  195  A    between atoms: _487  and  _489
REMARK  196  A    between atoms: _489  and  _490
REMARK  197  A    between atoms: _489  and  _492
REMARK  198  A    between atoms: _492  and  _493
REMARK  199  A    between atoms: _498  and  _500
REMARK  200  A    between atoms: _500  and  _501
REMARK  201  A    between atoms: _500  and  _503
REMARK  202  A    between atoms: _506  and  _508
REMARK  203  A    between atoms: _508  and  _509
REMARK  204  A    between atoms: _508  and  _511
REMARK  205  A    between atoms: _511  and  _512
REMARK  206  A    between atoms: _515  and  _517
REMARK  207  A    between atoms: _517  and  _518
REMARK  208  A    between atoms: _520  and  _522
REMARK  209  A    between atoms: _522  and  _523
REMARK  210  A    between atoms: _522  and  _525
REMARK  211  A    between atoms: _525  and  _526
REMARK  212  A    between atoms: _526  and  _527
REMARK  213  A    between atoms: _527  and  _528
REMARK  214  A    between atoms: _537  and  _539
REMARK  215  A    between atoms: _539  and  _540
REMARK  216  A    between atoms: _539  and  _542
REMARK  217  A    between atoms: _542  and  _543
REMARK                            x       y       z     vdW  Elec       q    Type
REMARK                         _______ _______ _______ _____ _____    ______ ____
ROOT
ATOM      1  CA  VAL A   3     -16.881   9.660   3.120  0.00  0.00    +0.149 C 
ENDROOT
BRANCH   1   3
ATOM      2  C   PRO A   2     -14.579   9.763   2.412  0.00  0.00    +0.241 C 
ATOM      3  N   VAL A   3     -15.579   9.066   2.938  0.00  0.00    -0.297 N 
ATOM      4  H   VAL A   3     -15.422   8.078   3.223  0.00  0.00    +0.150 HD
ATOM      5  O   PRO A   2     -14.750  10.870   1.917  0.00  0.00    -0.273 OA
BRANCH   2  12
ATOM      6  C   THR A   1     -12.952   8.587   4.815  0.00  0.00    +0.244 C 
ATOM      7  O   THR A   1     -13.118   9.776   5.089  0.00  0.00    -0.273 OA
ATOM      8  N   PRO A   2     -13.061   8.109   3.553  0.00  0.00    -0.272 N 
ATOM      9  CD  PRO A   2     -12.707   6.784   3.032  0.00  0.00    +0.094 C 
ATOM     10  CG  PRO A   2     -12.482   7.073   1.599  0.00  0.00    +0.024 C 
ATOM     11  CB  PRO A   2     -13.050   8.199   1.188  0.00  0.00    +0.031 C 
ATOM     12  CA  PRO A   2     -13.228   9.088   2.469  0.00  0.00    +0.152 C 
BRANCH   6  13
ATOM     13  CA  THR A   1     -12.767   7.558   5.922  0.00  0.00    +0.172 C 
BRANCH  13  14
ATOM     14  N   THR A   1     -12.005   8.213   6.943  0.00  0.00    -0.236 NA
ATOM     15  H   THR A   1     -12.474   8.429   7.846  0.00  0.00    +0.142 HD
ENDBRANCH  13  14
BRANCH  13  16
ATOM     16  CB  THR A   1     -14.163   7.089   6.492  0.00  0.00    +0.135 C 
ATOM     17  CG2 THR A   1     -14.884   8.259   7.215  0.00  0.00    +0.034 C 
BRANCH  16  18
ATOM     18  OG1 THR A   1     -14.931   6.593   5.416  0.00  0.00    -0.383 OA
ATOM     19  HG1 THR A   1     -15.059   7.310   4.745  0.00  0.00    +0.210 HD
ENDBRANCH  16  18
ENDBRANCH  13  16
ENDBRANCH   6  13
ENDBRANCH   2  12
ENDBRANCH   1   3
BRANCH   1  20
ATOM     20  C   VAL A   3     -17.360   9.165   4.469  0.00  0.00    +0.241 C 
ATOM     21  N   ASN A   4     -18.252   9.941   5.045  0.00  0.00    -0.297 N 
ATOM     22  H   ASN A   4     -18.535  10.841   4.608  0.00  0.00    +0.150 HD
ATOM     23  O   VAL A   3     -16.960   8.092   4.978  0.00  0.00    -0.273 OA
BRANCH  21  24
ATOM     24  CA  ASN A   4     -18.836   9.509   6.313  0.00  0.00    +0.158 C 
BRANCH  24  25
ATOM     25  C   ASN A   4     -19.928   8.488   5.978  0.00  0.00    +0.241 C 
ATOM     26  N   VAL A   5     -20.096   7.437   6.775  0.00  0.00    -0.298 N 
ATOM     27  H   VAL A   5     -19.487   7.296   7.606  0.00  0.00    +0.150 HD
ATOM     28  O   ASN A   4     -20.636   8.635   4.978  0.00  0.00    -0.273 OA
BRANCH  26  29
ATOM     29  CA  VAL A   5     -21.175   6.470   6.449  0.00  0.00    +0.137 C 
BRANCH  29  30
ATOM     30  CB  VAL A   5     -20.622   5.098   5.896  0.00  0.00    +0.026 C 
ATOM     31  CG2 VAL A   5     -19.628   4.496   6.875  0.00  0.00    +0.002 C 
ATOM     32  CG1 VAL A   5     -19.989   5.316   4.544  0.00  0.00    +0.002 C 
ENDBRANCH  29  30
BRANCH  29  33
ATOM     33  C   VAL A   5     -21.942   6.226   7.705  0.00  0.00    +0.227 C 
ATOM     34  O   VAL A   5     -21.391   6.248   8.805  0.00  0.00    -0.286 OA
ENDBRANCH  29  33
ENDBRANCH  26  29
ENDBRANCH  24  25
BRANCH  24  35
ATOM     35  CB  ASN A   4     -19.464  10.699   7.020  0.00  0.00    +0.114 C 
BRANCH  35  36
ATOM     36  CG  ASN A   4     -18.435  11.779   7.353  0.00  0.00    +0.222 C 
ATOM     37  OD1 ASN A   4     -17.297  11.439   7.722  0.00  0.00    -0.275 OA
ATOM     38  ND2 ASN A   4     -18.845  13.028   7.211  0.00  0.00    -0.329 N 
ATOM     39 HD21 ASN A   4     -18.196  13.815   7.414  0.00  0.00    +0.145 HD
ATOM     40 HD22 ASN A   4     -19.817  13.224   6.897  0.00  0.00    +0.145 HD
ENDBRANCH  35  36
ENDBRANCH  24  35
ENDBRANCH  21  24
ENDBRANCH   1  20
BRANCH   1  41
ATOM     41  CB  VAL A   3     -17.869   9.255   1.949  0.00  0.00    +0.027 C 
ATOM     42  CG2 VAL A   3     -18.191   7.835   2.064  0.00  0.00    +0.002 C 
ATOM     43  CG1 VAL A   3     -19.086  10.020   1.965  0.00  0.00    +0.002 C 
ENDBRANCH   1  41
TORSDOF 15
REMARK  Name = ../refined-set-2016/4yhq/4yhq_pocket.pdb
REMARK  217 active torsions:
REMARK  status: ('A' for Active; 'I' for Inactive)
REMARK    1  A    between atoms: _1  and  _3
REMARK    2  A    between atoms: _3  and  _4
REMARK    3  A    between atoms: _3  and  _6
REMARK    4  A    between atoms: _6  and  _7
REMARK    5  A    between atoms: _7  and  _8
REMARK    6  A    between atoms: _8  and  _9
REMARK    7  A    between atoms: _18  and  _20
REMARK    8  A    between atoms: _20  and  _21
REMARK    9  A    between atoms: _20  and  _23
REMARK   10  A    between atoms: _23  and  _24
REMARK   11  A    between atoms: _30  and  _32
REMARK   12  A    between atoms: _32  and  _33
REMARK   13  A    between atoms: _32  and  _35
REMARK   14  A    between atoms: _35  and  _36
REMARK   15  A    between atoms: _39  and  _41
REMARK   16  A    between atoms: _41  and  _42
REMARK   17  A    between atoms: _41  and  _44
REMARK   18  A    between atoms: _44  and  _45
REMARK   19  A    between atoms: _48  and  _50
REMARK   20  A    between atoms: _50  and  _51
REMARK   21  A    between atoms: _50  and  _53
REMARK   22  A    between atoms: _53  and  _54
REMARK   23  A    between atoms: _57  and  _59
REMARK   24  A    between atoms: _59  and  _60
REMARK   25  A    between atoms: _59  and  _62
REMARK   26  A    between atoms: _62  and  _63
REMARK   27  A    between atoms: _66  and  _68
REMARK   28  A    between atoms: _68  and  _69
REMARK   29  A    between atoms: _71  and  _73
REMARK   30  A    between atoms: _73  and  _74
REMARK   31  A    between atoms: _77  and  _79
REMARK   32  A    between atoms: _79  and  _80
REMARK   33  A    between atoms: _79  and  _82
REMARK   34  A    between atoms: _82  and  _83
REMARK   35  A    between atoms: _86  and  _88
REMARK   36  A    between atoms: _88  and  _89
REMARK   37  A    between atoms: _88  and  _91
REMARK   38  A    between atoms: _91  and  _92
REMARK   39  A    between atoms: _97  and  _99
REMARK   40  A    between atoms: _99  and  _100
REMARK   41  A    between atoms: _99  and  _102
REMARK   42  A    between atoms: _102  and  _103
REMARK   43  A    between atoms: _106  and  _108
REMARK   44  A    between atoms: _108  and  _109
REMARK   45  A    between atoms: _108  and  _111
REMARK   46  A    between atoms: _111  and  _112
REMARK   47  A    between atoms: _115  and  _117
REMARK   48  A    between atoms: _117  and  _118
REMARK   49  A    between atoms: _117  and  _120
REMARK   50  A    between atoms: _120  and  _121
REMARK   51  A    between atoms: _121  and  _122
REMARK   52  A    between atoms: _124  and  _126
REMARK   53  A    between atoms: _126  and  _127
REMARK   54  A    between atoms: _126  and  _129
REMARK   55  A    between atoms: _132  and  _134
REMARK   56  A    between atoms: _134  and  _135
REMARK   57  A    between atoms: _137  and  _139
REMARK   58  A    between atoms: _139  and  _140
REMARK   59  A    between atoms: _142  and  _144
REMARK   60  A    between atoms: _144  and  _145
REMARK   61  A    between atoms: _144  and  _147
REMARK   62  A    between atoms: _147  and  _148
REMARK   63  A    between atoms: _151  and  _153
REMARK   64  A    between atoms: _153  and  _154
REMARK   65  A    between atoms: _156  and  _158
REMARK   66  A    between atoms: _158  and  _159
REMARK   67  A    between atoms: _161  and  _163
REMARK   68  A    between atoms: _163  and  _164
REMARK   69  A    between atoms: _163  and  _166
REMARK   70  A    between atoms: _166  and  _167
REMARK   71  A    between atoms: _173  and  _175
REMARK   72  A    between atoms: _175  and  _176
REMARK   73  A    between atoms: _175  and  _178
REMARK   74  A    between atoms: _178  and  _179
REMARK   75  A    between atoms: _182  and  _184
REMARK   76  A    between atoms: _184  and  _185
REMARK   77  A    between atoms: _184  and  _187
REMARK   78  A    between atoms: _187  and  _188
REMARK   79  A    between atoms: _191  and  _193
REMARK   80  A    between atoms: _193  and  _194
REMARK   81  A    between atoms: _193  and  _196
REMARK   82  A    between atoms: _196  and  _197
REMARK   83  A    between atoms: _201  and  _202
REMARK   84  A    between atoms: _207  and  _209
REMARK   85  A    between atoms: _209  and  _210
REMARK   86  A    between atoms: _209  and  _212
REMARK   87  A    between atoms: _215  and  _217
REMARK   88  A    between atoms: _217  and  _218
REMARK   89  A    between atoms: _217  and  _220
REMARK   90  A    between atoms: _220  and  _221
REMARK   91  A    between atoms: _226  and  _228
REMARK   92  A    between atoms: _228  and  _229
REMARK   93  A    between atoms: _228  and  _231
REMARK   94  A    between atoms: _234  and  _236
REMARK   95  A    between atoms: _236  and  _237
REMARK   96  A    between atoms: _239  and  _241
REMARK   97  A    between atoms: _241  and  _242
REMARK   98  A    between atoms: _241  and  _244
REMARK   99  A    between atoms: _244  and  _245
REMARK  100  A    between atoms: _245  and  _246
REMARK  101  A    between atoms: _246  and  _247
REMARK  102  A    between atoms: _256  and  _258
REMARK  103  A    between atoms: _258  and  _259
REMARK  104  A    between atoms: _258  and  _261
REMARK  105  A    between atoms: _261  and  _262
REMARK  106  A    between atoms: _265  and  _267
REMARK  107  A    between atoms: _267  and  _268
REMARK  108  A    between atoms: _267  and  _270
REMARK  109  A    between atoms: _270  and  _271
REMARK  110  A    between atoms: _271  and  _272
REMARK  111  A    between atoms: _272  and  _273
REMARK  112  A    between atoms: _282  and  _284
REMARK  113  A    between atoms: _284  and  _285
REMARK  114  A    between atoms: _284  and  _287
REMARK  115  A    between atoms: _287  and  _288
REMARK  116  A    between atoms: _294  and  _296
REMARK  117  A    between atoms: _296  and  _297
REMARK  118  A    between atoms: _296  and  _299
REMARK  119  A    between atoms: _299  and  _300
REMARK  120  A    between atoms: _303  and  _305
REMARK  121  A    between atoms: _305  and  _306
REMARK  122  A    between atoms: _305  and  _308
REMARK  123  A    between atoms: _308  and  _309
REMARK  124  A    between atoms: _312  and  _314
REMARK  125  A    between atoms: _314  and  _315
REMARK  126  A    between atoms: _314  and  _317
REMARK  127  A    between atoms: _317  and  _318
REMARK  128  A    between atoms: _321  and  _323
REMARK  129  A    between atoms: _323  and  _324
REMARK  130  A    between atoms: _323  and  _326
REMARK  131  A    between atoms: _326  and  _327
REMARK  132  A    between atoms: _330  and  _332
REMARK  133  A    between atoms: _332  and  _333
REMARK  134  A    between atoms: _335  and  _337
REMARK  135  A    between atoms: _337  and  _338
REMARK  136  A    between atoms: _341  and  _343
REMARK  137  A    between atoms: _343  and  _344
REMARK  138  A    between atoms: _343  and  _346
REMARK  139  A    between atoms: _346  and  _347
REMARK  140  A    between atoms: _350  and  _352
REMARK  141  A    between atoms: _352  and  _353
REMARK  142  A    between atoms: _352  and  _355
REMARK  143  A    between atoms: _355  and  _356
REMARK  144  A    between atoms: _361  and  _363
REMARK  145  A    between atoms: _363  and  _364
REMARK  146  A    between atoms: _363  and  _366
REMARK  147  A    between atoms: _366  and  _367
REMARK  148  A    between atoms: _370  and  _372
REMARK  149  A    between atoms: _372  and  _373
REMARK  150  A    between atoms: _372  and  _375
REMARK  151  A    between atoms: _375  and  _376
REMARK  152  A    between atoms: _379  and  _381
REMARK  153  A    between atoms: _381  and  _382
REMARK  154  A    between atoms: _381  and  _384
REMARK  155  A    between atoms: _384  and  _385
REMARK  156  A    between atoms: _385  and  _386
REMARK  157  A    between atoms: _388  and  _390
REMARK  158  A    between atoms: _390  and  _391
REMARK  159  A    between atoms: _390  and  _393
REMARK  160  A    between atoms: _396  and  _398
REMARK  161  A    between atoms: _398  and  _399
REMARK  162  A    between atoms: _401  and  _403
REMARK  163  A    between atoms: _403  and  _404
REMARK  164  A    between atoms: _406  and  _408
REMARK  165  A    between atoms: _408  and  _409
REMARK  166  A    between atoms: _408  and  _411
REMARK  167  A    between atoms: _411  and  _412
REMARK  168  A    between atoms: _415  and  _417
REMARK  169  A    between atoms: _417  and  _418
REMARK  170  A    between atoms: _420  and  _422
REMARK  171  A    between atoms: _422  and  _423
REMARK  172  A    between atoms: _425  and  _427
REMARK  173  A    between atoms: _427  and  _428
REMARK  174  A    between atoms: _427  and  _430
REMARK  175  A    between atoms: _430  and  _431
REMARK  176  A    between atoms: _437  and  _439
REMARK  177  A    between atoms: _439  and  _440
REMARK  178  A    between atoms: _439  and  _442
REMARK  179  A    between atoms: _442  and  _443
REMARK  180  A    between atoms: _446  and  _448
REMARK  181  A    between atoms: _448  and  _449
REMARK  182  A    between atoms: _448  and  _451
REMARK  183  A    between atoms: _454  and  _456
REMARK  184  A    between atoms: _456  and  _457
REMARK  185  A    between atoms: _456  and  _459
REMARK  186  A    between atoms: _459  and  _460
REMARK  187  A    between atoms: _463  and  _465
REMARK  188  A    between atoms: _465  and  _466
REMARK  189  A    between atoms: _465  and  _468
REMARK  190  A    between atoms: _468  and  _469
REMARK  191  A    between atoms: _473  and  _474
REMARK  192  A    between atoms: _479  and  _481
REMARK  193  A    between atoms: _481  and  _482
REMARK  194  A    between atoms: _481  and  _484
REMARK  195  A    between atoms: _487  and  _489
REMARK  196  A    between atoms: _489  and  _490
REMARK  197  A    between atoms: _489  and  _492
REMARK  198  A    between atoms: _492  and  _493
REMARK  199  A    between atoms: _498  and  _500
REMARK  200  A    between atoms: _500  and  _501
REMARK  201  A    between atoms: _500  and  _503
REMARK  202  A    between atoms: _506  and  _508
REMARK  203  A    between atoms: _508  and  _509
REMARK  204  A    between atoms: _508  and  _511
REMARK  205  A    between atoms: _511  and  _512
REMARK  206  A    between atoms: _515  and  _517
REMARK  207  A    between atoms: _517  and  _518
REMARK  208  A    between atoms: _520  and  _522
REMARK  209  A    between atoms: _522  and  _523
REMARK  210  A    between atoms: _522  and  _525
REMARK  211  A    between atoms: _525  and  _526
REMARK  212  A    between atoms: _526  and  _527
REMARK  213  A    between atoms: _527  and  _528
REMARK  214  A    between atoms: _537  and  _539
REMARK  215  A    between atoms: _539  and  _540
REMARK  216  A    between atoms: _539  and  _542
REMARK  217  A    between atoms: _542  and  _543
REMARK                            x       y       z     vdW  Elec       q    Type
REMARK                         _______ _______ _______ _____ _____    ______ ____
ROOT
ATOM      1  CA  ARG A   2     -26.372  -0.920  10.163  0.00  0.00    +0.149 C 
ENDROOT
BRANCH   1   4
ATOM      2  C   GLY A   1     -25.193   1.139   9.697  0.00  0.00    +0.240 C 
ATOM      3  O   GLY A   1     -26.111   1.815  10.202  0.00  0.00    -0.274 OA
ATOM      4  N   ARG A   2     -25.197  -0.193   9.705  0.00  0.00    -0.297 N 
ATOM      5  H   ARG A   2     -24.357  -0.716   9.383  0.00  0.00    +0.150 HD
BRANCH   2   6
ATOM      6  CA  GLY A   1     -23.954   1.775   9.085  0.00  0.00    +0.169 C 
BRANCH   6   7
ATOM      7  N   GLY A   1     -23.916   3.196   9.247  0.00  0.00    -0.236 NA
ATOM      8  H   GLY A   1     -23.579   3.603  10.143  0.00  0.00    +0.142 HD
ENDBRANCH   6   7
ENDBRANCH   2   6
ENDBRANCH   1   4
BRANCH   1   9
ATOM      9  C   ARG A   2     -26.602  -0.756  11.649  0.00  0.00    +0.241 C 
ATOM     10  N   ASP A   3     -25.548  -0.511  12.417  0.00  0.00    -0.298 N 
ATOM     11  H   ASP A   3     -24.589  -0.525  12.014  0.00  0.00    +0.150 HD
ATOM     12  O   ARG A   2     -27.740  -0.833  12.096  0.00  0.00    -0.273 OA
BRANCH  10  13
ATOM     13  CA  ASP A   3     -25.751  -0.219  13.848  0.00  0.00    +0.148 C 
BRANCH  13  14
ATOM     14  C   ASP A   3     -26.684   0.936  14.080  0.00  0.00    +0.227 C 
ATOM     15  O   ASP A   3     -27.579   0.856  14.907  0.00  0.00    -0.286 OA
ENDBRANCH  13  14
BRANCH  13  16
ATOM     16  CB  ASP A   3     -24.422  -0.018  14.548  0.00  0.00    +0.142 C 
BRANCH  16  17
ATOM     17  CG  ASP A   3     -23.554   1.101  13.977  0.00  0.00    +0.367 C 
ATOM     18  OD2 ASP A   3     -22.590   1.492  14.703  0.00  0.00    -0.246 OA
ATOM     19  OD1 ASP A   3     -23.769   1.608  12.849  0.00  0.00    -0.246 OA
ENDBRANCH  16  17
ENDBRANCH  13  16
ENDBRANCH  10  13
ENDBRANCH   1   9
BRANCH   1  20
ATOM     20  CB  ARG A   2     -26.209  -2.388   9.818  0.00  0.00    +0.033 C 
BRANCH  20  21
ATOM     21  CG  ARG A   2     -26.222  -2.668   8.315  0.00  0.00    +0.045 C 
BRANCH  21  22
ATOM     22  CD  ARG A   2     -26.275  -4.145   7.955  0.00  0.00    +0.174 C 
BRANCH  22  23
ATOM     23  NE  ARG A   2     -25.149  -4.872   8.494  0.00  0.00    -0.265 N 
ATOM     24  CZ  ARG A   2     -25.072  -5.586   9.623  0.00  0.00    +0.342 C 
ATOM     25  NH2 ARG A   2     -26.149  -5.821  10.423  0.00  0.00    -0.292 N 
ATOM     26 HH21 ARG A   2     -26.039  -6.382  11.292  0.00  0.00    +0.255 HD
ATOM     27 HH22 ARG A   2     -27.081  -5.439  10.165  0.00  0.00    +0.255 HD
ATOM     28  NH1 ARG A   2     -23.857  -6.036   9.981  0.00  0.00    -0.292 N 
ATOM     29 HH11 ARG A   2     -23.745  -6.596  10.850  0.00  0.00    +0.255 HD
ATOM     30 HH12 ARG A   2     -23.029  -5.824   9.389  0.00  0.00    +0.255 HD
ATOM     31  HE  ARG A   2     -24.278  -4.835   7.926  0.00  0.00    +0.259 HD
ENDBRANCH  22  23
ENDBRANCH  21  22
ENDBRANCH  20  21
ENDBRANCH   1  20
TORSDOF 12
REMARK  Name = ../refined-set-2016/4yhq/4yhq_pocket.pdb
REMARK  217 active torsions:
REMARK  status: ('A' for Active; 'I' for Inactive)
REMARK    1  A    between atoms: _1  and  _3
REMARK    2  A    between atoms: _3  and  _4
REMARK    3  A    between atoms: _3  and  _6
REMARK    4  A    between atoms: _6  and  _7
REMARK    5  A    between atoms: _7  and  _8
REMARK    6  A    between atoms: _8  and  _9
REMARK    7  A    between atoms: _18  and  _20
REMARK    8  A    between atoms: _20  and  _21
REMARK    9  A    between atoms: _20  and  _23
REMARK   10  A    between atoms: _23  and  _24
REMARK   11  A    between atoms: _30  and  _32
REMARK   12  A    between atoms: _32  and  _33
REMARK   13  A    between atoms: _32  and  _35
REMARK   14  A    between atoms: _35  and  _36
REMARK   15  A    between atoms: _39  and  _41
REMARK   16  A    between atoms: _41  and  _42
REMARK   17  A    between atoms: _41  and  _44
REMARK   18  A    between atoms: _44  and  _45
REMARK   19  A    between atoms: _48  and  _50
REMARK   20  A    between atoms: _50  and  _51
REMARK   21  A    between atoms: _50  and  _53
REMARK   22  A    between atoms: _53  and  _54
REMARK   23  A    between atoms: _57  and  _59
REMARK   24  A    between atoms: _59  and  _60
REMARK   25  A    between atoms: _59  and  _62
REMARK   26  A    between atoms: _62  and  _63
REMARK   27  A    between atoms: _66  and  _68
REMARK   28  A    between atoms: _68  and  _69
REMARK   29  A    between atoms: _71  and  _73
REMARK   30  A    between atoms: _73  and  _74
REMARK   31  A    between atoms: _77  and  _79
REMARK   32  A    between atoms: _79  and  _80
REMARK   33  A    between atoms: _79  and  _82
REMARK   34  A    between atoms: _82  and  _83
REMARK   35  A    between atoms: _86  and  _88
REMARK   36  A    between atoms: _88  and  _89
REMARK   37  A    between atoms: _88  and  _91
REMARK   38  A    between atoms: _91  and  _92
REMARK   39  A    between atoms: _97  and  _99
REMARK   40  A    between atoms: _99  and  _100
REMARK   41  A    between atoms: _99  and  _102
REMARK   42  A    between atoms: _102  and  _103
REMARK   43  A    between atoms: _106  and  _108
REMARK   44  A    between atoms: _108  and  _109
REMARK   45  A    between atoms: _108  and  _111
REMARK   46  A    between atoms: _111  and  _112
REMARK   47  A    between atoms: _115  and  _117
REMARK   48  A    between atoms: _117  and  _118
REMARK   49  A    between atoms: _117  and  _120
REMARK   50  A    between atoms: _120  and  _121
REMARK   51  A    between atoms: _121  and  _122
REMARK   52  A    between atoms: _124  and  _126
REMARK   53  A    between atoms: _126  and  _127
REMARK   54  A    between atoms: _126  and  _129
REMARK   55  A    between atoms: _132  and  _134
REMARK   56  A    between atoms: _134  and  _135
REMARK   57  A    between atoms: _137  and  _139
REMARK   58  A    between atoms: _139  and  _140
REMARK   59  A    between atoms: _142  and  _144
REMARK   60  A    between atoms: _144  and  _145
REMARK   61  A    between atoms: _144  and  _147
REMARK   62  A    between atoms: _147  and  _148
REMARK   63  A    between atoms: _151  and  _153
REMARK   64  A    between atoms: _153  and  _154
REMARK   65  A    between atoms: _156  and  _158
REMARK   66  A    between atoms: _158  and  _159
REMARK   67  A    between atoms: _161  and  _163
REMARK   68  A    between atoms: _163  and  _164
REMARK   69  A    between atoms: _163  and  _166
REMARK   70  A    between atoms: _166  and  _167
REMARK   71  A    between atoms: _173  and  _175
REMARK   72  A    between atoms: _175  and  _176
REMARK   73  A    between atoms: _175  and  _178
REMARK   74  A    between atoms: _178  and  _179
REMARK   75  A    between atoms: _182  and  _184
REMARK   76  A    between atoms: _184  and  _185
REMARK   77  A    between atoms: _184  and  _187
REMARK   78  A    between atoms: _187  and  _188
REMARK   79  A    between atoms: _191  and  _193
REMARK   80  A    between atoms: _193  and  _194
REMARK   81  A    between atoms: _193  and  _196
REMARK   82  A    between atoms: _196  and  _197
REMARK   83  A    between atoms: _201  and  _202
REMARK   84  A    between atoms: _207  and  _209
REMARK   85  A    between atoms: _209  and  _210
REMARK   86  A    between atoms: _209  and  _212
REMARK   87  A    between atoms: _215  and  _217
REMARK   88  A    between atoms: _217  and  _218
REMARK   89  A    between atoms: _217  and  _220
REMARK   90  A    between atoms: _220  and  _221
REMARK   91  A    between atoms: _226  and  _228
REMARK   92  A    between atoms: _228  and  _229
REMARK   93  A    between atoms: _228  and  _231
REMARK   94  A    between atoms: _234  and  _236
REMARK   95  A    between atoms: _236  and  _237
REMARK   96  A    between atoms: _239  and  _241
REMARK   97  A    between atoms: _241  and  _242
REMARK   98  A    between atoms: _241  and  _244
REMARK   99  A    between atoms: _244  and  _245
REMARK  100  A    between atoms: _245  and  _246
REMARK  101  A    between atoms: _246  and  _247
REMARK  102  A    between atoms: _256  and  _258
REMARK  103  A    between atoms: _258  and  _259
REMARK  104  A    between atoms: _258  and  _261
REMARK  105  A    between atoms: _261  and  _262
REMARK  106  A    between atoms: _265  and  _267
REMARK  107  A    between atoms: _267  and  _268
REMARK  108  A    between atoms: _267  and  _270
REMARK  109  A    between atoms: _270  and  _271
REMARK  110  A    between atoms: _271  and  _272
REMARK  111  A    between atoms: _272  and  _273
REMARK  112  A    between atoms: _282  and  _284
REMARK  113  A    between atoms: _284  and  _285
REMARK  114  A    between atoms: _284  and  _287
REMARK  115  A    between atoms: _287  and  _288
REMARK  116  A    between atoms: _294  and  _296
REMARK  117  A    between atoms: _296  and  _297
REMARK  118  A    between atoms: _296  and  _299
REMARK  119  A    between atoms: _299  and  _300
REMARK  120  A    between atoms: _303  and  _305
REMARK  121  A    between atoms: _305  and  _306
REMARK  122  A    between atoms: _305  and  _308
REMARK  123  A    between atoms: _308  and  _309
REMARK  124  A    between atoms: _312  and  _314
REMARK  125  A    between atoms: _314  and  _315
REMARK  126  A    between atoms: _314  and  _317
REMARK  127  A    between atoms: _317  and  _318
REMARK  128  A    between atoms: _321  and  _323
REMARK  129  A    between atoms: _323  and  _324
REMARK  130  A    between atoms: _323  and  _326
REMARK  131  A    between atoms: _326  and  _327
REMARK  132  A    between atoms: _330  and  _332
REMARK  133  A    between atoms: _332  and  _333
REMARK  134  A    between atoms: _335  and  _337
REMARK  135  A    between atoms: _337  and  _338
REMARK  136  A    between atoms: _341  and  _343
REMARK  137  A    between atoms: _343  and  _344
REMARK  138  A    between atoms: _343  and  _346
REMARK  139  A    between atoms: _346  and  _347
REMARK  140  A    between atoms: _350  and  _352
REMARK  141  A    between atoms: _352  and  _353
REMARK  142  A    between atoms: _352  and  _355
REMARK  143  A    between atoms: _355  and  _356
REMARK  144  A    between atoms: _361  and  _363
REMARK  145  A    between atoms: _363  and  _364
REMARK  146  A    between atoms: _363  and  _366
REMARK  147  A    between atoms: _366  and  _367
REMARK  148  A    between atoms: _370  and  _372
REMARK  149  A    between atoms: _372  and  _373
REMARK  150  A    between atoms: _372  and  _375
REMARK  151  A    between atoms: _375  and  _376
REMARK  152  A    between atoms: _379  and  _381
REMARK  153  A    between atoms: _381  and  _382
REMARK  154  A    between atoms: _381  and  _384
REMARK  155  A    between atoms: _384  and  _385
REMARK  156  A    between atoms: _385  and  _386
REMARK  157  A    between atoms: _388  and  _390
REMARK  158  A    between atoms: _390  and  _391
REMARK  159  A    between atoms: _390  and  _393
REMARK  160  A    between atoms: _396  and  _398
REMARK  161  A    between atoms: _398  and  _399
REMARK  162  A    between atoms: _401  and  _403
REMARK  163  A    between atoms: _403  and  _404
REMARK  164  A    between atoms: _406  and  _408
REMARK  165  A    between atoms: _408  and  _409
REMARK  166  A    between atoms: _408  and  _411
REMARK  167  A    between atoms: _411  and  _412
REMARK  168  A    between atoms: _415  and  _417
REMARK  169  A    between atoms: _417  and  _418
REMARK  170  A    between atoms: _420  and  _422
REMARK  171  A    between atoms: _422  and  _423
REMARK  172  A    between atoms: _425  and  _427
REMARK  173  A    between atoms: _427  and  _428
REMARK  174  A    between atoms: _427  and  _430
REMARK  175  A    between atoms: _430  and  _431
REMARK  176  A    between atoms: _437  and  _439
REMARK  177  A    between atoms: _439  and  _440
REMARK  178  A    between atoms: _439  and  _442
REMARK  179  A    between atoms: _442  and  _443
REMARK  180  A    between atoms: _446  and  _448
REMARK  181  A    between atoms: _448  and  _449
REMARK  182  A    between atoms: _448  and  _451
REMARK  183  A    between atoms: _454  and  _456
REMARK  184  A    between atoms: _456  and  _457
REMARK  185  A    between atoms: _456  and  _459
REMARK  186  A    between atoms: _459  and  _460
REMARK  187  A    between atoms: _463  and  _465
REMARK  188  A    between atoms: _465  and  _466
REMARK  189  A    between atoms: _465  and  _468
REMARK  190  A    between atoms: _468  and  _469
REMARK  191  A    between atoms: _473  and  _474
REMARK  192  A    between atoms: _479  and  _481
REMARK  193  A    between atoms: _481  and  _482
REMARK  194  A    between atoms: _481  and  _484
REMARK  195  A    between atoms: _487  and  _489
REMARK  196  A    between atoms: _489  and  _490
REMARK  197  A    between atoms: _489  and  _492
REMARK  198  A    between atoms: _492  and  _493
REMARK  199  A    between atoms: _498  and  _500
REMARK  200  A    between atoms: _500  and  _501
REMARK  201  A    between atoms: _500  and  _503
REMARK  202  A    between atoms: _506  and  _508
REMARK  203  A    between atoms: _508  and  _509
REMARK  204  A    between atoms: _508  and  _511
REMARK  205  A    between atoms: _511  and  _512
REMARK  206  A    between atoms: _515  and  _517
REMARK  207  A    between atoms: _517  and  _518
REMARK  208  A    between atoms: _520  and  _522
REMARK  209  A    between atoms: _522  and  _523
REMARK  210  A    between atoms: _522  and  _525
REMARK  211  A    between atoms: _525  and  _526
REMARK  212  A    between atoms: _526  and  _527
REMARK  213  A    between atoms: _527  and  _528
REMARK  214  A    between atoms: _537  and  _539
REMARK  215  A    between atoms: _539  and  _540
REMARK  216  A    between atoms: _539  and  _542
REMARK  217  A    between atoms: _542  and  _543
REMARK                            x       y       z     vdW  Elec       q    Type
REMARK                         _______ _______ _______ _____ _____    ______ ____
ROOT
ATOM      1  NE  ARG A   1     -21.490 -10.259   7.193  0.00  0.00    -0.265 N 
ATOM      2  HE  ARG A   1     -22.230 -10.835   7.642  0.00  0.00    +0.259 HD
ATOM      3  CZ  ARG A   1     -20.360 -10.894   6.836  0.00  0.00    +0.342 C 
ATOM      4  NH2 ARG A   1     -20.262 -12.212   7.034  0.00  0.00    -0.292 N 
ATOM      5 HH21 ARG A   1     -21.054 -12.734   7.460  0.00  0.00    +0.255 HD
ATOM      6 HH22 ARG A   1     -19.393 -12.715   6.762  0.00  0.00    +0.255 HD
ATOM      7  NH1 ARG A   1     -19.323 -10.231   6.309  0.00  0.00    -0.292 N 
ATOM      8 HH11 ARG A   1     -19.381  -9.202   6.168  0.00  0.00    +0.255 HD
ATOM      9 HH12 ARG A   1     -18.459 -10.745   6.041  0.00  0.00    +0.255 HD
ENDROOT
BRANCH   1  10
ATOM     10  CD  ARG A   1     -21.783  -8.816   7.008  0.00  0.00    +0.174 C 
BRANCH  10  11
ATOM     11  CG  ARG A   1     -23.231  -8.485   7.459  0.00  0.00    +0.045 C 
BRANCH  11  12
ATOM     12  CB  ARG A   1     -24.314  -8.910   6.449  0.00  0.00    +0.029 C 
BRANCH  12  13
ATOM     13  CA  ARG A   1     -25.646  -8.264   6.742  0.00  0.00    +0.133 C 
BRANCH  13  14
ATOM     14  N   ARG A   1     -26.168  -8.737   8.040  0.00  0.00    -0.239 NA
ATOM     15  H   ARG A   1     -25.603  -9.391   8.618  0.00  0.00    +0.142 HD
ENDBRANCH  13  14
BRANCH  13  16
ATOM     16  C   ARG A   1     -26.633  -8.663   5.669  0.00  0.00    +0.224 C 
ATOM     17  O   ARG A   1     -27.038  -9.825   5.627  0.00  0.00    -0.287 OA
ENDBRANCH  13  16
ENDBRANCH  12  13
ENDBRANCH  11  12
ENDBRANCH  10  11
ENDBRANCH   1  10
TORSDOF 6
REMARK  Name = ../refined-set-2016/4yhq/4yhq_pocket.pdb
REMARK  217 active torsions:
REMARK  status: ('A' for Active; 'I' for Inactive)
REMARK    1  A    between atoms: _1  and  _3
REMARK    2  A    between atoms: _3  and  _4
REMARK    3  A    between atoms: _3  and  _6
REMARK    4  A    between atoms: _6  and  _7
REMARK    5  A    between atoms: _7  and  _8
REMARK    6  A    between atoms: _8  and  _9
REMARK    7  A    between atoms: _18  and  _20
REMARK    8  A    between atoms: _20  and  _21
REMARK    9  A    between atoms: _20  and  _23
REMARK   10  A    between atoms: _23  and  _24
REMARK   11  A    between atoms: _30  and  _32
REMARK   12  A    between atoms: _32  and  _33
REMARK   13  A    between atoms: _32  and  _35
REMARK   14  A    between atoms: _35  and  _36
REMARK   15  A    between atoms: _39  and  _41
REMARK   16  A    between atoms: _41  and  _42
REMARK   17  A    between atoms: _41  and  _44
REMARK   18  A    between atoms: _44  and  _45
REMARK   19  A    between atoms: _48  and  _50
REMARK   20  A    between atoms: _50  and  _51
REMARK   21  A    between atoms: _50  and  _53
REMARK   22  A    between atoms: _53  and  _54
REMARK   23  A    between atoms: _57  and  _59
REMARK   24  A    between atoms: _59  and  _60
REMARK   25  A    between atoms: _59  and  _62
REMARK   26  A    between atoms: _62  and  _63
REMARK   27  A    between atoms: _66  and  _68
REMARK   28  A    between atoms: _68  and  _69
REMARK   29  A    between atoms: _71  and  _73
REMARK   30  A    between atoms: _73  and  _74
REMARK   31  A    between atoms: _77  and  _79
REMARK   32  A    between atoms: _79  and  _80
REMARK   33  A    between atoms: _79  and  _82
REMARK   34  A    between atoms: _82  and  _83
REMARK   35  A    between atoms: _86  and  _88
REMARK   36  A    between atoms: _88  and  _89
REMARK   37  A    between atoms: _88  and  _91
REMARK   38  A    between atoms: _91  and  _92
REMARK   39  A    between atoms: _97  and  _99
REMARK   40  A    between atoms: _99  and  _100
REMARK   41  A    between atoms: _99  and  _102
REMARK   42  A    between atoms: _102  and  _103
REMARK   43  A    between atoms: _106  and  _108
REMARK   44  A    between atoms: _108  and  _109
REMARK   45  A    between atoms: _108  and  _111
REMARK   46  A    between atoms: _111  and  _112
REMARK   47  A    between atoms: _115  and  _117
REMARK   48  A    between atoms: _117  and  _118
REMARK   49  A    between atoms: _117  and  _120
REMARK   50  A    between atoms: _120  and  _121
REMARK   51  A    between atoms: _121  and  _122
REMARK   52  A    between atoms: _124  and  _126
REMARK   53  A    between atoms: _126  and  _127
REMARK   54  A    between atoms: _126  and  _129
REMARK   55  A    between atoms: _132  and  _134
REMARK   56  A    between atoms: _134  and  _135
REMARK   57  A    between atoms: _137  and  _139
REMARK   58  A    between atoms: _139  and  _140
REMARK   59  A    between atoms: _142  and  _144
REMARK   60  A    between atoms: _144  and  _145
REMARK   61  A    between atoms: _144  and  _147
REMARK   62  A    between atoms: _147  and  _148
REMARK   63  A    between atoms: _151  and  _153
REMARK   64  A    between atoms: _153  and  _154
REMARK   65  A    between atoms: _156  and  _158
REMARK   66  A    between atoms: _158  and  _159
REMARK   67  A    between atoms: _161  and  _163
REMARK   68  A    between atoms: _163  and  _164
REMARK   69  A    between atoms: _163  and  _166
REMARK   70  A    between atoms: _166  and  _167
REMARK   71  A    between atoms: _173  and  _175
REMARK   72  A    between atoms: _175  and  _176
REMARK   73  A    between atoms: _175  and  _178
REMARK   74  A    between atoms: _178  and  _179
REMARK   75  A    between atoms: _182  and  _184
REMARK   76  A    between atoms: _184  and  _185
REMARK   77  A    between atoms: _184  and  _187
REMARK   78  A    between atoms: _187  and  _188
REMARK   79  A    between atoms: _191  and  _193
REMARK   80  A    between atoms: _193  and  _194
REMARK   81  A    between atoms: _193  and  _196
REMARK   82  A    between atoms: _196  and  _197
REMARK   83  A    between atoms: _201  and  _202
REMARK   84  A    between atoms: _207  and  _209
REMARK   85  A    between atoms: _209  and  _210
REMARK   86  A    between atoms: _209  and  _212
REMARK   87  A    between atoms: _215  and  _217
REMARK   88  A    between atoms: _217  and  _218
REMARK   89  A    between atoms: _217  and  _220
REMARK   90  A    between atoms: _220  and  _221
REMARK   91  A    between atoms: _226  and  _228
REMARK   92  A    between atoms: _228  and  _229
REMARK   93  A    between atoms: _228  and  _231
REMARK   94  A    between atoms: _234  and  _236
REMARK   95  A    between atoms: _236  and  _237
REMARK   96  A    between atoms: _239  and  _241
REMARK   97  A    between atoms: _241  and  _242
REMARK   98  A    between atoms: _241  and  _244
REMARK   99  A    between atoms: _244  and  _245
REMARK  100  A    between atoms: _245  and  _246
REMARK  101  A    between atoms: _246  and  _247
REMARK  102  A    between atoms: _256  and  _258
REMARK  103  A    between atoms: _258  and  _259
REMARK  104  A    between atoms: _258  and  _261
REMARK  105  A    between atoms: _261  and  _262
REMARK  106  A    between atoms: _265  and  _267
REMARK  107  A    between atoms: _267  and  _268
REMARK  108  A    between atoms: _267  and  _270
REMARK  109  A    between atoms: _270  and  _271
REMARK  110  A    between atoms: _271  and  _272
REMARK  111  A    between atoms: _272  and  _273
REMARK  112  A    between atoms: _282  and  _284
REMARK  113  A    between atoms: _284  and  _285
REMARK  114  A    between atoms: _284  and  _287
REMARK  115  A    between atoms: _287  and  _288
REMARK  116  A    between atoms: _294  and  _296
REMARK  117  A    between atoms: _296  and  _297
REMARK  118  A    between atoms: _296  and  _299
REMARK  119  A    between atoms: _299  and  _300
REMARK  120  A    between atoms: _303  and  _305
REMARK  121  A    between atoms: _305  and  _306
REMARK  122  A    between atoms: _305  and  _308
REMARK  123  A    between atoms: _308  and  _309
REMARK  124  A    between atoms: _312  and  _314
REMARK  125  A    between atoms: _314  and  _315
REMARK  126  A    between atoms: _314  and  _317
REMARK  127  A    between atoms: _317  and  _318
REMARK  128  A    between atoms: _321  and  _323
REMARK  129  A    between atoms: _323  and  _324
REMARK  130  A    between atoms: _323  and  _326
REMARK  131  A    between atoms: _326  and  _327
REMARK  132  A    between atoms: _330  and  _332
REMARK  133  A    between atoms: _332  and  _333
REMARK  134  A    between atoms: _335  and  _337
REMARK  135  A    between atoms: _337  and  _338
REMARK  136  A    between atoms: _341  and  _343
REMARK  137  A    between atoms: _343  and  _344
REMARK  138  A    between atoms: _343  and  _346
REMARK  139  A    between atoms: _346  and  _347
REMARK  140  A    between atoms: _350  and  _352
REMARK  141  A    between atoms: _352  and  _353
REMARK  142  A    between atoms: _352  and  _355
REMARK  143  A    between atoms: _355  and  _356
REMARK  144  A    between atoms: _361  and  _363
REMARK  145  A    between atoms: _363  and  _364
REMARK  146  A    between atoms: _363  and  _366
REMARK  147  A    between atoms: _366  and  _367
REMARK  148  A    between atoms: _370  and  _372
REMARK  149  A    between atoms: _372  and  _373
REMARK  150  A    between atoms: _372  and  _375
REMARK  151  A    between atoms: _375  and  _376
REMARK  152  A    between atoms: _379  and  _381
REMARK  153  A    between atoms: _381  and  _382
REMARK  154  A    between atoms: _381  and  _384
REMARK  155  A    between atoms: _384  and  _385
REMARK  156  A    between atoms: _385  and  _386
REMARK  157  A    between atoms: _388  and  _390
REMARK  158  A    between atoms: _390  and  _391
REMARK  159  A    between atoms: _390  and  _393
REMARK  160  A    between atoms: _396  and  _398
REMARK  161  A    between atoms: _398  and  _399
REMARK  162  A    between atoms: _401  and  _403
REMARK  163  A    between atoms: _403  and  _404
REMARK  164  A    between atoms: _406  and  _408
REMARK  165  A    between atoms: _408  and  _409
REMARK  166  A    between atoms: _408  and  _411
REMARK  167  A    between atoms: _411  and  _412
REMARK  168  A    between atoms: _415  and  _417
REMARK  169  A    between atoms: _417  and  _418
REMARK  170  A    between atoms: _420  and  _422
REMARK  171  A    between atoms: _422  and  _423
REMARK  172  A    between atoms: _425  and  _427
REMARK  173  A    between atoms: _427  and  _428
REMARK  174  A    between atoms: _427  and  _430
REMARK  175  A    between atoms: _430  and  _431
REMARK  176  A    between atoms: _437  and  _439
REMARK  177  A    between atoms: _439  and  _440
REMARK  178  A    between atoms: _439  and  _442
REMARK  179  A    between atoms: _442  and  _443
REMARK  180  A    between atoms: _446  and  _448
REMARK  181  A    between atoms: _448  and  _449
REMARK  182  A    between atoms: _448  and  _451
REMARK  183  A    between atoms: _454  and  _456
REMARK  184  A    between atoms: _456  and  _457
REMARK  185  A    between atoms: _456  and  _459
REMARK  186  A    between atoms: _459  and  _460
REMARK  187  A    between atoms: _463  and  _465
REMARK  188  A    between atoms: _465  and  _466
REMARK  189  A    between atoms: _465  and  _468
REMARK  190  A    between atoms: _468  and  _469
REMARK  191  A    between atoms: _473  and  _474
REMARK  192  A    between atoms: _479  and  _481
REMARK  193  A    between atoms: _481  and  _482
REMARK  194  A    between atoms: _481  and  _484
REMARK  195  A    between atoms: _487  and  _489
REMARK  196  A    between atoms: _489  and  _490
REMARK  197  A    between atoms: _489  and  _492
REMARK  198  A    between atoms: _492  and  _493
REMARK  199  A    between atoms: _498  and  _500
REMARK  200  A    between atoms: _500  and  _501
REMARK  201  A    between atoms: _500  and  _503
REMARK  202  A    between atoms: _506  and  _508
REMARK  203  A    between atoms: _508  and  _509
REMARK  204  A    between atoms: _508  and  _511
REMARK  205  A    between atoms: _511  and  _512
REMARK  206  A    between atoms: _515  and  _517
REMARK  207  A    between atoms: _517  and  _518
REMARK  208  A    between atoms: _520  and  _522
REMARK  209  A    between atoms: _522  and  _523
REMARK  210  A    between atoms: _522  and  _525
REMARK  211  A    between atoms: _525  and  _526
REMARK  212  A    between atoms: _526  and  _527
REMARK  213  A    between atoms: _527  and  _528
REMARK  214  A    between atoms: _537  and  _539
REMARK  215  A    between atoms: _539  and  _540
REMARK  216  A    between atoms: _539  and  _542
REMARK  217  A    between atoms: _542  and  _543
REMARK                            x       y       z     vdW  Elec       q    Type
REMARK                         _______ _______ _______ _____ _____    ______ ____
ROOT
ATOM      1  CB  PHE A   1     -25.873 -12.137   2.178  0.00  0.00    +0.051 C 
ENDROOT
BRANCH   1   2
ATOM      2  CG  PHE A   1     -24.461 -11.792   2.553  0.00  0.00    -0.020 A 
ATOM      3  CD2 PHE A   1     -24.062 -11.683   3.906  0.00  0.00    -0.004 A 
ATOM      4  CE2 PHE A   1     -22.726 -11.351   4.194  0.00  0.00    -0.000 A 
ATOM      5  CZ  PHE A   1     -21.809 -11.162   3.110  0.00  0.00    -0.000 A 
ATOM      6  CE1 PHE A   1     -22.201 -11.289   1.788  0.00  0.00    -0.000 A 
ATOM      7  CD1 PHE A   1     -23.533 -11.573   1.533  0.00  0.00    -0.004 A 
ENDBRANCH   1   2
BRANCH   1   8
ATOM      8  CA  PHE A   1     -26.615 -10.966   1.624  0.00  0.00    +0.137 C 
BRANCH   8   9
ATOM      9  N   PHE A   1     -27.074 -10.086   2.729  0.00  0.00    -0.239 NA
ATOM     10  H   PHE A   1     -27.086 -10.448   3.704  0.00  0.00    +0.142 HD
ENDBRANCH   8   9
BRANCH   8  11
ATOM     11  C   PHE A   1     -27.763 -11.420   0.797  0.00  0.00    +0.224 C 
ATOM     12  O   PHE A   1     -28.847 -11.799   1.338  0.00  0.00    -0.287 OA
ENDBRANCH   8  11
ENDBRANCH   1   8
TORSDOF 4
REMARK  Name = ../refined-set-2016/4yhq/4yhq_pocket.pdb
REMARK  217 active torsions:
REMARK  status: ('A' for Active; 'I' for Inactive)
REMARK    1  A    between atoms: _1  and  _3
REMARK    2  A    between atoms: _3  and  _4
REMARK    3  A    between atoms: _3  and  _6
REMARK    4  A    between atoms: _6  and  _7
REMARK    5  A    between atoms: _7  and  _8
REMARK    6  A    between atoms: _8  and  _9
REMARK    7  A    between atoms: _18  and  _20
REMARK    8  A    between atoms: _20  and  _21
REMARK    9  A    between atoms: _20  and  _23
REMARK   10  A    between atoms: _23  and  _24
REMARK   11  A    between atoms: _30  and  _32
REMARK   12  A    between atoms: _32  and  _33
REMARK   13  A    between atoms: _32  and  _35
REMARK   14  A    between atoms: _35  and  _36
REMARK   15  A    between atoms: _39  and  _41
REMARK   16  A    between atoms: _41  and  _42
REMARK   17  A    between atoms: _41  and  _44
REMARK   18  A    between atoms: _44  and  _45
REMARK   19  A    between atoms: _48  and  _50
REMARK   20  A    between atoms: _50  and  _51
REMARK   21  A    between atoms: _50  and  _53
REMARK   22  A    between atoms: _53  and  _54
REMARK   23  A    between atoms: _57  and  _59
REMARK   24  A    between atoms: _59  and  _60
REMARK   25  A    between atoms: _59  and  _62
REMARK   26  A    between atoms: _62  and  _63
REMARK   27  A    between atoms: _66  and  _68
REMARK   28  A    between atoms: _68  and  _69
REMARK   29  A    between atoms: _71  and  _73
REMARK   30  A    between atoms: _73  and  _74
REMARK   31  A    between atoms: _77  and  _79
REMARK   32  A    between atoms: _79  and  _80
REMARK   33  A    between atoms: _79  and  _82
REMARK   34  A    between atoms: _82  and  _83
REMARK   35  A    between atoms: _86  and  _88
REMARK   36  A    between atoms: _88  and  _89
REMARK   37  A    between atoms: _88  and  _91
REMARK   38  A    between atoms: _91  and  _92
REMARK   39  A    between atoms: _97  and  _99
REMARK   40  A    between atoms: _99  and  _100
REMARK   41  A    between atoms: _99  and  _102
REMARK   42  A    between atoms: _102  and  _103
REMARK   43  A    between atoms: _106  and  _108
REMARK   44  A    between atoms: _108  and  _109
REMARK   45  A    between atoms: _108  and  _111
REMARK   46  A    between atoms: _111  and  _112
REMARK   47  A    between atoms: _115  and  _117
REMARK   48  A    between atoms: _117  and  _118
REMARK   49  A    between atoms: _117  and  _120
REMARK   50  A    between atoms: _120  and  _121
REMARK   51  A    between atoms: _121  and  _122
REMARK   52  A    between atoms: _124  and  _126
REMARK   53  A    between atoms: _126  and  _127
REMARK   54  A    between atoms: _126  and  _129
REMARK   55  A    between atoms: _132  and  _134
REMARK   56  A    between atoms: _134  and  _135
REMARK   57  A    between atoms: _137  and  _139
REMARK   58  A    between atoms: _139  and  _140
REMARK   59  A    between atoms: _142  and  _144
REMARK   60  A    between atoms: _144  and  _145
REMARK   61  A    between atoms: _144  and  _147
REMARK   62  A    between atoms: _147  and  _148
REMARK   63  A    between atoms: _151  and  _153
REMARK   64  A    between atoms: _153  and  _154
REMARK   65  A    between atoms: _156  and  _158
REMARK   66  A    between atoms: _158  and  _159
REMARK   67  A    between atoms: _161  and  _163
REMARK   68  A    between atoms: _163  and  _164
REMARK   69  A    between atoms: _163  and  _166
REMARK   70  A    between atoms: _166  and  _167
REMARK   71  A    between atoms: _173  and  _175
REMARK   72  A    between atoms: _175  and  _176
REMARK   73  A    between atoms: _175  and  _178
REMARK   74  A    between atoms: _178  and  _179
REMARK   75  A    between atoms: _182  and  _184
REMARK   76  A    between atoms: _184  and  _185
REMARK   77  A    between atoms: _184  and  _187
REMARK   78  A    between atoms: _187  and  _188
REMARK   79  A    between atoms: _191  and  _193
REMARK   80  A    between atoms: _193  and  _194
REMARK   81  A    between atoms: _193  and  _196
REMARK   82  A    between atoms: _196  and  _197
REMARK   83  A    between atoms: _201  and  _202
REMARK   84  A    between atoms: _207  and  _209
REMARK   85  A    between atoms: _209  and  _210
REMARK   86  A    between atoms: _209  and  _212
REMARK   87  A    between atoms: _215  and  _217
REMARK   88  A    between atoms: _217  and  _218
REMARK   89  A    between atoms: _217  and  _220
REMARK   90  A    between atoms: _220  and  _221
REMARK   91  A    between atoms: _226  and  _228
REMARK   92  A    between atoms: _228  and  _229
REMARK   93  A    between atoms: _228  and  _231
REMARK   94  A    between atoms: _234  and  _236
REMARK   95  A    between atoms: _236  and  _237
REMARK   96  A    between atoms: _239  and  _241
REMARK   97  A    between atoms: _241  and  _242
REMARK   98  A    between atoms: _241  and  _244
REMARK   99  A    between atoms: _244  and  _245
REMARK  100  A    between atoms: _245  and  _246
REMARK  101  A    between atoms: _246  and  _247
REMARK  102  A    between atoms: _256  and  _258
REMARK  103  A    between atoms: _258  and  _259
REMARK  104  A    between atoms: _258  and  _261
REMARK  105  A    between atoms: _261  and  _262
REMARK  106  A    between atoms: _265  and  _267
REMARK  107  A    between atoms: _267  and  _268
REMARK  108  A    between atoms: _267  and  _270
REMARK  109  A    between atoms: _270  and  _271
REMARK  110  A    between atoms: _271  and  _272
REMARK  111  A    between atoms: _272  and  _273
REMARK  112  A    between atoms: _282  and  _284
REMARK  113  A    between atoms: _284  and  _285
REMARK  114  A    between atoms: _284  and  _287
REMARK  115  A    between atoms: _287  and  _288
REMARK  116  A    between atoms: _294  and  _296
REMARK  117  A    between atoms: _296  and  _297
REMARK  118  A    between atoms: _296  and  _299
REMARK  119  A    between atoms: _299  and  _300
REMARK  120  A    between atoms: _303  and  _305
REMARK  121  A    between atoms: _305  and  _306
REMARK  122  A    between atoms: _305  and  _308
REMARK  123  A    between atoms: _308  and  _309
REMARK  124  A    between atoms: _312  and  _314
REMARK  125  A    between atoms: _314  and  _315
REMARK  126  A    between atoms: _314  and  _317
REMARK  127  A    between atoms: _317  and  _318
REMARK  128  A    between atoms: _321  and  _323
REMARK  129  A    between atoms: _323  and  _324
REMARK  130  A    between atoms: _323  and  _326
REMARK  131  A    between atoms: _326  and  _327
REMARK  132  A    between atoms: _330  and  _332
REMARK  133  A    between atoms: _332  and  _333
REMARK  134  A    between atoms: _335  and  _337
REMARK  135  A    between atoms: _337  and  _338
REMARK  136  A    between atoms: _341  and  _343
REMARK  137  A    between atoms: _343  and  _344
REMARK  138  A    between atoms: _343  and  _346
REMARK  139  A    between atoms: _346  and  _347
REMARK  140  A    between atoms: _350  and  _352
REMARK  141  A    between atoms: _352  and  _353
REMARK  142  A    between atoms: _352  and  _355
REMARK  143  A    between atoms: _355  and  _356
REMARK  144  A    between atoms: _361  and  _363
REMARK  145  A    between atoms: _363  and  _364
REMARK  146  A    between atoms: _363  and  _366
REMARK  147  A    between atoms: _366  and  _367
REMARK  148  A    between atoms: _370  and  _372
REMARK  149  A    between atoms: _372  and  _373
REMARK  150  A    between atoms: _372  and  _375
REMARK  151  A    between atoms: _375  and  _376
REMARK  152  A    between atoms: _379  and  _381
REMARK  153  A    between atoms: _381  and  _382
REMARK  154  A    between atoms: _381  and  _384
REMARK  155  A    between atoms: _384  and  _385
REMARK  156  A    between atoms: _385  and  _386
REMARK  157  A    between atoms: _388  and  _390
REMARK  158  A    between atoms: _390  and  _391
REMARK  159  A    between atoms: _390  and  _393
REMARK  160  A    between atoms: _396  and  _398
REMARK  161  A    between atoms: _398  and  _399
REMARK  162  A    between atoms: _401  and  _403
REMARK  163  A    between atoms: _403  and  _404
REMARK  164  A    between atoms: _406  and  _408
REMARK  165  A    between atoms: _408  and  _409
REMARK  166  A    between atoms: _408  and  _411
REMARK  167  A    between atoms: _411  and  _412
REMARK  168  A    between atoms: _415  and  _417
REMARK  169  A    between atoms: _417  and  _418
REMARK  170  A    between atoms: _420  and  _422
REMARK  171  A    between atoms: _422  and  _423
REMARK  172  A    between atoms: _425  and  _427
REMARK  173  A    between atoms: _427  and  _428
REMARK  174  A    between atoms: _427  and  _430
REMARK  175  A    between atoms: _430  and  _431
REMARK  176  A    between atoms: _437  and  _439
REMARK  177  A    between atoms: _439  and  _440
REMARK  178  A    between atoms: _439  and  _442
REMARK  179  A    between atoms: _442  and  _443
REMARK  180  A    between atoms: _446  and  _448
REMARK  181  A    between atoms: _448  and  _449
REMARK  182  A    between atoms: _448  and  _451
REMARK  183  A    between atoms: _454  and  _456
REMARK  184  A    between atoms: _456  and  _457
REMARK  185  A    between atoms: _456  and  _459
REMARK  186  A    between atoms: _459  and  _460
REMARK  187  A    between atoms: _463  and  _465
REMARK  188  A    between atoms: _465  and  _466
REMARK  189  A    between atoms: _465  and  _468
REMARK  190  A    between atoms: _468  and  _469
REMARK  191  A    between atoms: _473  and  _474
REMARK  192  A    between atoms: _479  and  _481
REMARK  193  A    between atoms: _481  and  _482
REMARK  194  A    between atoms: _481  and  _484
REMARK  195  A    between atoms: _487  and  _489
REMARK  196  A    between atoms: _489  and  _490
REMARK  197  A    between atoms: _489  and  _492
REMARK  198  A    between atoms: _492  and  _493
REMARK  199  A    between atoms: _498  and  _500
REMARK  200  A    between atoms: _500  and  _501
REMARK  201  A    between atoms: _500  and  _503
REMARK  202  A    between atoms: _506  and  _508
REMARK  203  A    between atoms: _508  and  _509
REMARK  204  A    between atoms: _508  and  _511
REMARK  205  A    between atoms: _511  and  _512
REMARK  206  A    between atoms: _515  and  _517
REMARK  207  A    between atoms: _517  and  _518
REMARK  208  A    between atoms: _520  and  _522
REMARK  209  A    between atoms: _522  and  _523
REMARK  210  A    between atoms: _522  and  _525
REMARK  211  A    between atoms: _525  and  _526
REMARK  212  A    between atoms: _526  and  _527
REMARK  213  A    between atoms: _527  and  _528
REMARK  214  A    between atoms: _537  and  _539
REMARK  215  A    between atoms: _539  and  _540
REMARK  216  A    between atoms: _539  and  _542
REMARK  217  A    between atoms: _542  and  _543
REMARK                            x       y       z     vdW  Elec       q    Type
REMARK                         _______ _______ _______ _____ _____    ______ ____
ROOT
ATOM      1  C   GLY A   5     -21.854   2.319  -1.333  0.00  0.00    +0.243 C 
ATOM      2  O   GLY A   5     -20.823   2.984  -1.447  0.00  0.00    -0.273 OA
ATOM      3  N   ALA A   6     -22.169   1.300  -2.173  0.00  0.00    -0.297 N 
ATOM      4  H   ALA A   6     -23.047   0.767  -2.013  0.00  0.00    +0.150 HD
ENDROOT
BRANCH   3   5
ATOM      5  CA  ALA A   6     -21.321   0.936  -3.281  0.00  0.00    +0.149 C 
ATOM      6  CB  ALA A   6     -21.182  -0.580  -3.363  0.00  0.00    +0.031 C 
BRANCH   5   7
ATOM      7  C   ALA A   6     -21.908   1.464  -4.564  0.00  0.00    +0.241 C 
ATOM      8  O   ALA A   6     -23.060   1.150  -4.927  0.00  0.00    -0.273 OA
ATOM      9  N   ASP A   7     -21.110   2.231  -5.319  0.00  0.00    -0.297 N 
ATOM     10  H   ASP A   7     -20.150   2.465  -4.994  0.00  0.00    +0.150 HD
BRANCH   9  11
ATOM     11  CA  ASP A   7     -21.593   2.734  -6.594  0.00  0.00    +0.160 C 
BRANCH  11  12
ATOM     12  C   ASP A   7     -21.736   1.574  -7.583  0.00  0.00    +0.241 C 
ATOM     13  N   ASN A   8     -20.874   0.553  -7.551  0.00  0.00    -0.297 N 
ATOM     14  H   ASN A   8     -20.167   0.488  -6.792  0.00  0.00    +0.150 HD
ATOM     15  O   ASP A   7     -22.644   1.604  -8.435  0.00  0.00    -0.273 OA
BRANCH  13  16
ATOM     16  CA  ASN A   8     -20.935  -0.485  -8.607  0.00  0.00    +0.158 C 
BRANCH  16  17
ATOM     17  C   ASN A   8     -20.597  -1.832  -7.999  0.00  0.00    +0.241 C 
ATOM     18  O   ASN A   8     -19.864  -2.014  -7.073  0.00  0.00    -0.273 OA
ATOM     19  N   THR A   9     -21.170  -2.793  -8.594  0.00  0.00    -0.295 N 
ATOM     20  H   THR A   9     -21.757  -2.548  -9.417  0.00  0.00    +0.150 HD
BRANCH  19  21
ATOM     21  CA  THR A   9     -21.093  -4.198  -8.248  0.00  0.00    +0.176 C 
BRANCH  21  22
ATOM     22  C   THR A   9     -19.690  -4.768  -8.493  0.00  0.00    +0.243 C 
ATOM     23  N   ILE A  10     -19.214  -5.548  -7.521  0.00  0.00    -0.298 N 
ATOM     24  H   ILE A  10     -19.821  -5.749  -6.701  0.00  0.00    +0.150 HD
ATOM     25  O   THR A   9     -19.083  -4.529  -9.548  0.00  0.00    -0.273 OA
BRANCH  23  26
ATOM     26  CA  ILE A  10     -17.871  -6.134  -7.561  0.00  0.00    +0.137 C 
BRANCH  26  27
ATOM     27  C   ILE A  10     -17.989  -7.554  -7.096  0.00  0.00    +0.227 C 
ATOM     28  O   ILE A  10     -18.652  -7.848  -6.072  0.00  0.00    -0.286 OA
ENDBRANCH  26  27
BRANCH  26  29
ATOM     29  CB  ILE A  10     -16.866  -5.462  -6.606  0.00  0.00    +0.026 C 
ATOM     30  CG2 ILE A  10     -15.478  -6.051  -6.815  0.00  0.00    +0.002 C 
BRANCH  29  31
ATOM     31  CG1 ILE A  10     -16.848  -3.955  -6.841  0.00  0.00    +0.002 C 
ATOM     32  CD1 ILE A  10     -15.916  -3.182  -5.964  0.00  0.00    +0.000 C 
ENDBRANCH  29  31
ENDBRANCH  26  29
ENDBRANCH  23  26
ENDBRANCH  21  22
BRANCH  21  33
ATOM     33  CB  THR A   9     -22.148  -4.926  -9.098  0.00  0.00    +0.137 C 
ATOM     34  CG2 THR A   9     -22.080  -6.423  -8.984  0.00  0.00    +0.034 C 
BRANCH  33  35
ATOM     35  OG1 THR A   9     -23.434  -4.484  -8.626  0.00  0.00    -0.382 OA
ATOM     36  HG1 THR A   9     -24.147  -4.930  -9.148  0.00  0.00    +0.210 HD
ENDBRANCH  33  35
ENDBRANCH  21  33
ENDBRANCH  19  21
ENDBRANCH  16  17
BRANCH  16  37
ATOM     37  CB  ASN A   8     -19.922  -0.260  -9.766  0.00  0.00    +0.114 C 
BRANCH  37  38
ATOM     38  CG  ASN A   8     -20.196   0.995 -10.473  0.00  0.00    +0.222 C 
ATOM     39  OD1 ASN A   8     -19.626   2.002 -10.089  0.00  0.00    -0.275 OA
ATOM     40  ND2 ASN A   8     -21.035   0.969 -11.491  0.00  0.00    -0.329 N 
ATOM     41 HD21 ASN A   8     -21.489   0.075 -11.768  0.00  0.00    +0.145 HD
ATOM     42 HD22 ASN A   8     -21.242   1.842 -12.016  0.00  0.00    +0.145 HD
ENDBRANCH  37  38
ENDBRANCH  16  37
ENDBRANCH  13  16
ENDBRANCH  11  12
BRANCH  11  43
ATOM     43  CB  ASP A   7     -20.626   3.728  -7.190  0.00  0.00    +0.143 C 
BRANCH  43  44
ATOM     44  CG  ASP A   7     -20.462   5.019  -6.345  0.00  0.00    +0.367 C 
ATOM     45  OD2 ASP A   7     -21.363   5.410  -5.583  0.00  0.00    -0.246 OA
ATOM     46  OD1 ASP A   7     -19.422   5.676  -6.592  0.00  0.00    -0.246 OA
ENDBRANCH  43  44
ENDBRANCH  11  43
ENDBRANCH   9  11
ENDBRANCH   5   7
ENDBRANCH   3   5
BRANCH   1  47
ATOM     47  CA  GLY A   5     -22.811   2.623  -0.177  0.00  0.00    +0.176 C 
BRANCH  47  49
ATOM     48  C   THR A   4     -25.096   2.069  -0.854  0.00  0.00    +0.243 C 
ATOM     49  N   GLY A   5     -23.992   1.754  -0.141  0.00  0.00    -0.295 N 
ATOM     50  H   GLY A   5     -23.980   0.890   0.437  0.00  0.00    +0.150 HD
ATOM     51  O   THR A   4     -25.161   3.095  -1.536  0.00  0.00    -0.273 OA
BRANCH  48  52
ATOM     52  CA  THR A   4     -26.235   1.072  -0.887  0.00  0.00    +0.176 C 
BRANCH  52  54
ATOM     53  C   ASP A   3     -24.982  -1.001  -1.097  0.00  0.00    +0.241 C 
ATOM     54  N   THR A   4     -25.827  -0.228  -0.382  0.00  0.00    -0.295 N 
ATOM     55  H   THR A   4     -26.187  -0.564   0.534  0.00  0.00    +0.150 HD
ATOM     56  O   ASP A   3     -24.454  -0.593  -2.145  0.00  0.00    -0.273 OA
BRANCH  53  57
ATOM     57  CA  ASP A   3     -24.666  -2.370  -0.524  0.00  0.00    +0.160 C 
BRANCH  57  60
ATOM     58  C   LEU A   2     -26.233  -4.232  -0.379  0.00  0.00    +0.241 C 
ATOM     59  O   LEU A   2     -26.432  -4.029   0.816  0.00  0.00    -0.273 OA
ATOM     60  N   ASP A   3     -25.470  -3.405  -1.133  0.00  0.00    -0.297 N 
ATOM     61  H   ASP A   3     -25.463  -3.517  -2.167  0.00  0.00    +0.150 HD
BRANCH  58  62
ATOM     62  CA  LEU A   2     -26.822  -5.440  -1.072  0.00  0.00    +0.149 C 
BRANCH  62  64
ATOM     63  C   LEU A   1     -24.706  -6.798  -0.732  0.00  0.00    +0.238 C 
ATOM     64  N   LEU A   2     -26.086  -6.595  -0.504  0.00  0.00    -0.297 N 
ATOM     65  H   LEU A   2     -26.604  -7.280   0.083  0.00  0.00    +0.150 HD
ATOM     66  O   LEU A   1     -24.009  -6.130  -1.566  0.00  0.00    -0.274 OA
BRANCH  63  67
ATOM     67  CA  LEU A   1     -23.891  -7.912   0.017  0.00  0.00    +0.145 C 
BRANCH  67  68
ATOM     68  N   LEU A   1     -23.331  -8.841  -0.934  0.00  0.00    -0.238 NA
ATOM     69  H   LEU A   1     -22.340  -8.705  -1.219  0.00  0.00    +0.142 HD
ENDBRANCH  67  68
BRANCH  67  70
ATOM     70  CB  LEU A   1     -22.638  -7.319   0.737  0.00  0.00    +0.026 C 
BRANCH  70  71
ATOM     71  CG  LEU A   1     -22.925  -6.316   1.867  0.00  0.00    +0.002 C 
ATOM     72  CD2 LEU A   1     -23.672  -7.071   2.942  0.00  0.00    +0.000 C 
ATOM     73  CD1 LEU A   1     -21.650  -5.776   2.373  0.00  0.00    +0.000 C 
ENDBRANCH  70  71
ENDBRANCH  67  70
ENDBRANCH  63  67
ENDBRANCH  62  64
BRANCH  62  74
ATOM     74  CB  LEU A   2     -28.275  -5.546  -0.768  0.00  0.00    +0.029 C 
BRANCH  74  75
ATOM     75  CG  LEU A   2     -28.943  -6.696  -1.468  0.00  0.00    +0.002 C 
ATOM     76  CD2 LEU A   2     -30.398  -6.719  -0.969  0.00  0.00    +0.000 C 
ATOM     77  CD1 LEU A   2     -28.914  -6.458  -2.991  0.00  0.00    +0.000 C 
ENDBRANCH  74  75
ENDBRANCH  62  74
ENDBRANCH  58  62
ENDBRANCH  57  60
BRANCH  57  78
ATOM     78  CB  ASP A   3     -23.265  -2.736  -0.799  0.00  0.00    +0.143 C 
BRANCH  78  79
ATOM     79  CG  ASP A   3     -22.354  -1.930  -0.060  0.00  0.00    +0.367 C 
ATOM     80  OD2 ASP A   3     -22.854  -0.911   0.546  0.00  0.00    -0.246 OA
ATOM     81  OD1 ASP A   3     -21.156  -2.191  -0.055  0.00  0.00    -0.246 OA
ENDBRANCH  78  79
ENDBRANCH  57  78
ENDBRANCH  53  57
ENDBRANCH  52  54
BRANCH  52  82
ATOM     82  CB  THR A   4     -27.381   1.635  -0.036  0.00  0.00    +0.137 C 
ATOM     83  CG2 THR A   4     -28.649   0.733  -0.154  0.00  0.00    +0.034 C 
BRANCH  82  84
ATOM     84  OG1 THR A   4     -26.995   1.682   1.340  0.00  0.00    -0.382 OA
ATOM     85  HG1 THR A   4     -26.200   2.264   1.439  0.00  0.00    +0.210 HD
ENDBRANCH  82  84
ENDBRANCH  52  82
ENDBRANCH  48  52
ENDBRANCH  47  49
ENDBRANCH   1  47
TORSDOF 36
REMARK  Name = ../refined-set-2016/4yhq/4yhq_pocket.pdb
REMARK  217 active torsions:
REMARK  status: ('A' for Active; 'I' for Inactive)
REMARK    1  A    between atoms: _1  and  _3
REMARK    2  A    between atoms: _3  and  _4
REMARK    3  A    between atoms: _3  and  _6
REMARK    4  A    between atoms: _6  and  _7
REMARK    5  A    between atoms: _7  and  _8
REMARK    6  A    between atoms: _8  and  _9
REMARK    7  A    between atoms: _18  and  _20
REMARK    8  A    between atoms: _20  and  _21
REMARK    9  A    between atoms: _20  and  _23
REMARK   10  A    between atoms: _23  and  _24
REMARK   11  A    between atoms: _30  and  _32
REMARK   12  A    between atoms: _32  and  _33
REMARK   13  A    between atoms: _32  and  _35
REMARK   14  A    between atoms: _35  and  _36
REMARK   15  A    between atoms: _39  and  _41
REMARK   16  A    between atoms: _41  and  _42
REMARK   17  A    between atoms: _41  and  _44
REMARK   18  A    between atoms: _44  and  _45
REMARK   19  A    between atoms: _48  and  _50
REMARK   20  A    between atoms: _50  and  _51
REMARK   21  A    between atoms: _50  and  _53
REMARK   22  A    between atoms: _53  and  _54
REMARK   23  A    between atoms: _57  and  _59
REMARK   24  A    between atoms: _59  and  _60
REMARK   25  A    between atoms: _59  and  _62
REMARK   26  A    between atoms: _62  and  _63
REMARK   27  A    between atoms: _66  and  _68
REMARK   28  A    between atoms: _68  and  _69
REMARK   29  A    between atoms: _71  and  _73
REMARK   30  A    between atoms: _73  and  _74
REMARK   31  A    between atoms: _77  and  _79
REMARK   32  A    between atoms: _79  and  _80
REMARK   33  A    between atoms: _79  and  _82
REMARK   34  A    between atoms: _82  and  _83
REMARK   35  A    between atoms: _86  and  _88
REMARK   36  A    between atoms: _88  and  _89
REMARK   37  A    between atoms: _88  and  _91
REMARK   38  A    between atoms: _91  and  _92
REMARK   39  A    between atoms: _97  and  _99
REMARK   40  A    between atoms: _99  and  _100
REMARK   41  A    between atoms: _99  and  _102
REMARK   42  A    between atoms: _102  and  _103
REMARK   43  A    between atoms: _106  and  _108
REMARK   44  A    between atoms: _108  and  _109
REMARK   45  A    between atoms: _108  and  _111
REMARK   46  A    between atoms: _111  and  _112
REMARK   47  A    between atoms: _115  and  _117
REMARK   48  A    between atoms: _117  and  _118
REMARK   49  A    between atoms: _117  and  _120
REMARK   50  A    between atoms: _120  and  _121
REMARK   51  A    between atoms: _121  and  _122
REMARK   52  A    between atoms: _124  and  _126
REMARK   53  A    between atoms: _126  and  _127
REMARK   54  A    between atoms: _126  and  _129
REMARK   55  A    between atoms: _132  and  _134
REMARK   56  A    between atoms: _134  and  _135
REMARK   57  A    between atoms: _137  and  _139
REMARK   58  A    between atoms: _139  and  _140
REMARK   59  A    between atoms: _142  and  _144
REMARK   60  A    between atoms: _144  and  _145
REMARK   61  A    between atoms: _144  and  _147
REMARK   62  A    between atoms: _147  and  _148
REMARK   63  A    between atoms: _151  and  _153
REMARK   64  A    between atoms: _153  and  _154
REMARK   65  A    between atoms: _156  and  _158
REMARK   66  A    between atoms: _158  and  _159
REMARK   67  A    between atoms: _161  and  _163
REMARK   68  A    between atoms: _163  and  _164
REMARK   69  A    between atoms: _163  and  _166
REMARK   70  A    between atoms: _166  and  _167
REMARK   71  A    between atoms: _173  and  _175
REMARK   72  A    between atoms: _175  and  _176
REMARK   73  A    between atoms: _175  and  _178
REMARK   74  A    between atoms: _178  and  _179
REMARK   75  A    between atoms: _182  and  _184
REMARK   76  A    between atoms: _184  and  _185
REMARK   77  A    between atoms: _184  and  _187
REMARK   78  A    between atoms: _187  and  _188
REMARK   79  A    between atoms: _191  and  _193
REMARK   80  A    between atoms: _193  and  _194
REMARK   81  A    between atoms: _193  and  _196
REMARK   82  A    between atoms: _196  and  _197
REMARK   83  A    between atoms: _201  and  _202
REMARK   84  A    between atoms: _207  and  _209
REMARK   85  A    between atoms: _209  and  _210
REMARK   86  A    between atoms: _209  and  _212
REMARK   87  A    between atoms: _215  and  _217
REMARK   88  A    between atoms: _217  and  _218
REMARK   89  A    between atoms: _217  and  _220
REMARK   90  A    between atoms: _220  and  _221
REMARK   91  A    between atoms: _226  and  _228
REMARK   92  A    between atoms: _228  and  _229
REMARK   93  A    between atoms: _228  and  _231
REMARK   94  A    between atoms: _234  and  _236
REMARK   95  A    between atoms: _236  and  _237
REMARK   96  A    between atoms: _239  and  _241
REMARK   97  A    between atoms: _241  and  _242
REMARK   98  A    between atoms: _241  and  _244
REMARK   99  A    between atoms: _244  and  _245
REMARK  100  A    between atoms: _245  and  _246
REMARK  101  A    between atoms: _246  and  _247
REMARK  102  A    between atoms: _256  and  _258
REMARK  103  A    between atoms: _258  and  _259
REMARK  104  A    between atoms: _258  and  _261
REMARK  105  A    between atoms: _261  and  _262
REMARK  106  A    between atoms: _265  and  _267
REMARK  107  A    between atoms: _267  and  _268
REMARK  108  A    between atoms: _267  and  _270
REMARK  109  A    between atoms: _270  and  _271
REMARK  110  A    between atoms: _271  and  _272
REMARK  111  A    between atoms: _272  and  _273
REMARK  112  A    between atoms: _282  and  _284
REMARK  113  A    between atoms: _284  and  _285
REMARK  114  A    between atoms: _284  and  _287
REMARK  115  A    between atoms: _287  and  _288
REMARK  116  A    between atoms: _294  and  _296
REMARK  117  A    between atoms: _296  and  _297
REMARK  118  A    between atoms: _296  and  _299
REMARK  119  A    between atoms: _299  and  _300
REMARK  120  A    between atoms: _303  and  _305
REMARK  121  A    between atoms: _305  and  _306
REMARK  122  A    between atoms: _305  and  _308
REMARK  123  A    between atoms: _308  and  _309
REMARK  124  A    between atoms: _312  and  _314
REMARK  125  A    between atoms: _314  and  _315
REMARK  126  A    between atoms: _314  and  _317
REMARK  127  A    between atoms: _317  and  _318
REMARK  128  A    between atoms: _321  and  _323
REMARK  129  A    between atoms: _323  and  _324
REMARK  130  A    between atoms: _323  and  _326
REMARK  131  A    between atoms: _326  and  _327
REMARK  132  A    between atoms: _330  and  _332
REMARK  133  A    between atoms: _332  and  _333
REMARK  134  A    between atoms: _335  and  _337
REMARK  135  A    between atoms: _337  and  _338
REMARK  136  A    between atoms: _341  and  _343
REMARK  137  A    between atoms: _343  and  _344
REMARK  138  A    between atoms: _343  and  _346
REMARK  139  A    between atoms: _346  and  _347
REMARK  140  A    between atoms: _350  and  _352
REMARK  141  A    between atoms: _352  and  _353
REMARK  142  A    between atoms: _352  and  _355
REMARK  143  A    between atoms: _355  and  _356
REMARK  144  A    between atoms: _361  and  _363
REMARK  145  A    between atoms: _363  and  _364
REMARK  146  A    between atoms: _363  and  _366
REMARK  147  A    between atoms: _366  and  _367
REMARK  148  A    between atoms: _370  and  _372
REMARK  149  A    between atoms: _372  and  _373
REMARK  150  A    between atoms: _372  and  _375
REMARK  151  A    between atoms: _375  and  _376
REMARK  152  A    between atoms: _379  and  _381
REMARK  153  A    between atoms: _381  and  _382
REMARK  154  A    between atoms: _381  and  _384
REMARK  155  A    between atoms: _384  and  _385
REMARK  156  A    between atoms: _385  and  _386
REMARK  157  A    between atoms: _388  and  _390
REMARK  158  A    between atoms: _390  and  _391
REMARK  159  A    between atoms: _390  and  _393
REMARK  160  A    between atoms: _396  and  _398
REMARK  161  A    between atoms: _398  and  _399
REMARK  162  A    between atoms: _401  and  _403
REMARK  163  A    between atoms: _403  and  _404
REMARK  164  A    between atoms: _406  and  _408
REMARK  165  A    between atoms: _408  and  _409
REMARK  166  A    between atoms: _408  and  _411
REMARK  167  A    between atoms: _411  and  _412
REMARK  168  A    between atoms: _415  and  _417
REMARK  169  A    between atoms: _417  and  _418
REMARK  170  A    between atoms: _420  and  _422
REMARK  171  A    between atoms: _422  and  _423
REMARK  172  A    between atoms: _425  and  _427
REMARK  173  A    between atoms: _427  and  _428
REMARK  174  A    between atoms: _427  and  _430
REMARK  175  A    between atoms: _430  and  _431
REMARK  176  A    between atoms: _437  and  _439
REMARK  177  A    between atoms: _439  and  _440
REMARK  178  A    between atoms: _439  and  _442
REMARK  179  A    between atoms: _442  and  _443
REMARK  180  A    between atoms: _446  and  _448
REMARK  181  A    between atoms: _448  and  _449
REMARK  182  A    between atoms: _448  and  _451
REMARK  183  A    between atoms: _454  and  _456
REMARK  184  A    between atoms: _456  and  _457
REMARK  185  A    between atoms: _456  and  _459
REMARK  186  A    between atoms: _459  and  _460
REMARK  187  A    between atoms: _463  and  _465
REMARK  188  A    between atoms: _465  and  _466
REMARK  189  A    between atoms: _465  and  _468
REMARK  190  A    between atoms: _468  and  _469
REMARK  191  A    between atoms: _473  and  _474
REMARK  192  A    between atoms: _479  and  _481
REMARK  193  A    between atoms: _481  and  _482
REMARK  194  A    between atoms: _481  and  _484
REMARK  195  A    between atoms: _487  and  _489
REMARK  196  A    between atoms: _489  and  _490
REMARK  197  A    between atoms: _489  and  _492
REMARK  198  A    between atoms: _492  and  _493
REMARK  199  A    between atoms: _498  and  _500
REMARK  200  A    between atoms: _500  and  _501
REMARK  201  A    between atoms: _500  and  _503
REMARK  202  A    between atoms: _506  and  _508
REMARK  203  A    between atoms: _508  and  _509
REMARK  204  A    between atoms: _508  and  _511
REMARK  205  A    between atoms: _511  and  _512
REMARK  206  A    between atoms: _515  and  _517
REMARK  207  A    between atoms: _517  and  _518
REMARK  208  A    between atoms: _520  and  _522
REMARK  209  A    between atoms: _522  and  _523
REMARK  210  A    between atoms: _522  and  _525
REMARK  211  A    between atoms: _525  and  _526
REMARK  212  A    between atoms: _526  and  _527
REMARK  213  A    between atoms: _527  and  _528
REMARK  214  A    between atoms: _537  and  _539
REMARK  215  A    between atoms: _539  and  _540
REMARK  216  A    between atoms: _539  and  _542
REMARK  217  A    between atoms: _542  and  _543
REMARK                            x       y       z     vdW  Elec       q    Type
REMARK                         _______ _______ _______ _____ _____    ______ ____
ROOT
ATOM      1  CA  ILE A   5     -12.076   2.342   3.807  0.00  0.00    +0.149 C 
ENDROOT
BRANCH   1   3
ATOM      2  C   GLY A   4     -12.251   2.912   1.469  0.00  0.00    +0.243 C 
ATOM      3  N   ILE A   5     -12.798   2.465   2.588  0.00  0.00    -0.297 N 
ATOM      4  H   ILE A   5     -13.801   2.191   2.575  0.00  0.00    +0.150 HD
ATOM      5  O   GLY A   4     -11.190   3.543   1.447  0.00  0.00    -0.273 OA
BRANCH   2   6
ATOM      6  CA  GLY A   4     -13.040   2.699   0.222  0.00  0.00    +0.176 C 
BRANCH   6   8
ATOM      7  C   GLY A   3     -12.715   3.078  -2.149  0.00  0.00    +0.243 C 
ATOM      8  N   GLY A   4     -12.194   2.692  -0.956  0.00  0.00    -0.295 N 
ATOM      9  H   GLY A   4     -11.200   2.395  -0.888  0.00  0.00    +0.150 HD
ATOM     10  O   GLY A   3     -13.916   3.282  -2.339  0.00  0.00    -0.273 OA
BRANCH   7  11
ATOM     11  CA  GLY A   3     -11.761   3.250  -3.298  0.00  0.00    +0.176 C 
BRANCH  11  13
ATOM     12  C   VAL A   2     -11.672   1.790  -5.153  0.00  0.00    +0.241 C 
ATOM     13  N   GLY A   3     -12.284   2.793  -4.532  0.00  0.00    -0.295 N 
ATOM     14  H   GLY A   3     -13.131   3.234  -4.944  0.00  0.00    +0.150 HD
ATOM     15  O   VAL A   2     -10.716   1.145  -4.708  0.00  0.00    -0.273 OA
BRANCH  12  16
ATOM     16  CA  VAL A   2     -12.204   1.484  -6.488  0.00  0.00    +0.148 C 
BRANCH  16  18
ATOM     17  C   MET A   1     -10.834   1.460  -8.477  0.00  0.00    +0.238 C 
ATOM     18  N   VAL A   2     -11.226   0.889  -7.355  0.00  0.00    -0.297 N 
ATOM     19  H   VAL A   2     -10.811  -0.027  -7.088  0.00  0.00    +0.150 HD
ATOM     20  O   MET A   1     -11.359   2.509  -8.879  0.00  0.00    -0.274 OA
BRANCH  17  21
ATOM     21  CA  MET A   1      -9.639   0.854  -9.213  0.00  0.00    +0.146 C 
BRANCH  21  22
ATOM     22  N   MET A   1      -9.795   0.959 -10.706  0.00  0.00    -0.238 NA
ATOM     23  H   MET A   1     -10.106   1.875 -11.087  0.00  0.00    +0.142 HD
ENDBRANCH  21  22
BRANCH  21  24
ATOM     24  CB  MET A   1      -8.436   1.636  -8.733  0.00  0.00    +0.038 C 
BRANCH  24  25
ATOM     25  CG  MET A   1      -7.938   2.511  -9.856  0.00  0.00    +0.060 C 
BRANCH  25  26
ATOM     26  SD  MET A   1      -6.659   1.580 -10.723  0.00  0.00    -0.139 S 
ATOM     27  CE  MET A   1      -5.251   2.149  -9.814  0.00  0.00    +0.069 C 
ENDBRANCH  25  26
ENDBRANCH  24  25
ENDBRANCH  21  24
ENDBRANCH  17  21
ENDBRANCH  16  18
BRANCH  16  28
ATOM     28  CB  VAL A   2     -13.435   0.663  -6.375  0.00  0.00    +0.027 C 
ATOM     29  CG2 VAL A   2     -13.140  -0.648  -5.748  0.00  0.00    +0.002 C 
ATOM     30  CG1 VAL A   2     -14.065   0.616  -7.726  0.00  0.00    +0.002 C 
ENDBRANCH  16  28
ENDBRANCH  12  16
ENDBRANCH  11  13
ENDBRANCH   7  11
ENDBRANCH   6   8
ENDBRANCH   2   6
ENDBRANCH   1   3
BRANCH   1  31
ATOM     31  C   ILE A   5     -10.874   1.436   3.592  0.00  0.00    +0.241 C 
ATOM     32  N   GLY A   6      -9.768   2.035   3.990  0.00  0.00    -0.295 N 
ATOM     33  H   GLY A   6      -9.788   2.825   4.667  0.00  0.00    +0.150 HD
ATOM     34  O   ILE A   5     -10.933   0.298   2.958  0.00  0.00    -0.273 OA
BRANCH  32  35
ATOM     35  CA  GLY A   6      -8.469   1.517   3.414  0.00  0.00    +0.176 C 
BRANCH  35  36
ATOM     36  C   GLY A   6      -7.778   1.875   2.037  0.00  0.00    +0.243 C 
ATOM     37  O   GLY A   6      -6.580   1.606   1.920  0.00  0.00    -0.273 OA
ATOM     38  N   GLY A   7      -8.451   2.458   1.034  0.00  0.00    -0.295 N 
ATOM     39  H   GLY A   7      -9.471   2.589   1.187  0.00  0.00    +0.150 HD
BRANCH  38  40
ATOM     40  CA  GLY A   7      -7.931   2.933  -0.249  0.00  0.00    +0.176 C 
BRANCH  40  41
ATOM     41  C   GLY A   7      -8.418   2.357  -1.614  0.00  0.00    +0.243 C 
ATOM     42  O   GLY A   7      -9.566   2.440  -1.926  0.00  0.00    -0.273 OA
ATOM     43  N   PHE A   8      -7.561   1.791  -2.458  0.00  0.00    -0.297 N 
ATOM     44  H   PHE A   8      -6.555   1.704  -2.208  0.00  0.00    +0.150 HD
BRANCH  43  45
ATOM     45  CA  PHE A   8      -8.046   1.298  -3.727  0.00  0.00    +0.153 C 
BRANCH  45  46
ATOM     46  C   PHE A   8      -7.756  -0.206  -4.033  0.00  0.00    +0.241 C 
ATOM     47  O   PHE A   8      -6.618  -0.718  -4.002  0.00  0.00    -0.273 OA
ATOM     48  N   LEU A   9      -8.862  -0.922  -4.224  0.00  0.00    -0.298 N 
ATOM     49  H   LEU A   9      -9.772  -0.497  -3.953  0.00  0.00    +0.150 HD
BRANCH  48  50
ATOM     50  CA  LEU A   9      -8.876  -2.270  -4.792  0.00  0.00    +0.137 C 
BRANCH  50  51
ATOM     51  C   LEU A   9      -8.684  -2.092  -6.284  0.00  0.00    +0.227 C 
ATOM     52  O   LEU A   9      -9.392  -1.249  -6.895  0.00  0.00    -0.286 OA
ENDBRANCH  50  51
BRANCH  50  53
ATOM     53  CB  LEU A   9     -10.255  -2.887  -4.566  0.00  0.00    +0.028 C 
BRANCH  53  54
ATOM     54  CG  LEU A   9     -10.441  -4.340  -5.112  0.00  0.00    +0.002 C 
ATOM     55  CD2 LEU A   9      -9.624  -5.325  -4.356  0.00  0.00    +0.000 C 
ATOM     56  CD1 LEU A   9     -11.945  -4.672  -5.027  0.00  0.00    +0.000 C 
ENDBRANCH  53  54
ENDBRANCH  50  53
ENDBRANCH  48  50
ENDBRANCH  45  46
BRANCH  45  57
ATOM     57  CB  PHE A   8      -7.614   2.231  -4.873  0.00  0.00    +0.055 C 
BRANCH  57  58
ATOM     58  CG  PHE A   8      -8.301   3.583  -4.891  0.00  0.00    -0.020 A 
ATOM     59  CD2 PHE A   8      -8.115   4.528  -3.858  0.00  0.00    -0.004 A 
ATOM     60  CE2 PHE A   8      -8.743   5.754  -3.961  0.00  0.00    -0.000 A 
ATOM     61  CZ  PHE A   8      -9.520   6.029  -5.059  0.00  0.00    -0.000 A 
ATOM     62  CE1 PHE A   8      -9.675   5.103  -6.071  0.00  0.00    -0.000 A 
ATOM     63  CD1 PHE A   8      -9.070   3.946  -6.000  0.00  0.00    -0.004 A 
ENDBRANCH  57  58
ENDBRANCH  45  57
ENDBRANCH  43  45
ENDBRANCH  40  41
ENDBRANCH  38  40
ENDBRANCH  35  36
ENDBRANCH  32  35
ENDBRANCH   1  31
BRANCH   1  64
ATOM     64  CB  ILE A   5     -13.012   1.968   4.990  0.00  0.00    +0.027 C 
ATOM     65  CG2 ILE A   5     -12.268   1.690   6.227  0.00  0.00    +0.002 C 
BRANCH  64  66
ATOM     66  CG1 ILE A   5     -13.952   3.131   5.281  0.00  0.00    +0.002 C 
ATOM     67  CD1 ILE A   5     -15.273   2.685   5.707  0.00  0.00    +0.000 C 
ENDBRANCH  64  66
ENDBRANCH   1  64
TORSDOF 28
REMARK  Name = ../refined-set-2016/4yhq/4yhq_pocket.pdb
REMARK  217 active torsions:
REMARK  status: ('A' for Active; 'I' for Inactive)
REMARK    1  A    between atoms: _1  and  _3
REMARK    2  A    between atoms: _3  and  _4
REMARK    3  A    between atoms: _3  and  _6
REMARK    4  A    between atoms: _6  and  _7
REMARK    5  A    between atoms: _7  and  _8
REMARK    6  A    between atoms: _8  and  _9
REMARK    7  A    between atoms: _18  and  _20
REMARK    8  A    between atoms: _20  and  _21
REMARK    9  A    between atoms: _20  and  _23
REMARK   10  A    between atoms: _23  and  _24
REMARK   11  A    between atoms: _30  and  _32
REMARK   12  A    between atoms: _32  and  _33
REMARK   13  A    between atoms: _32  and  _35
REMARK   14  A    between atoms: _35  and  _36
REMARK   15  A    between atoms: _39  and  _41
REMARK   16  A    between atoms: _41  and  _42
REMARK   17  A    between atoms: _41  and  _44
REMARK   18  A    between atoms: _44  and  _45
REMARK   19  A    between atoms: _48  and  _50
REMARK   20  A    between atoms: _50  and  _51
REMARK   21  A    between atoms: _50  and  _53
REMARK   22  A    between atoms: _53  and  _54
REMARK   23  A    between atoms: _57  and  _59
REMARK   24  A    between atoms: _59  and  _60
REMARK   25  A    between atoms: _59  and  _62
REMARK   26  A    between atoms: _62  and  _63
REMARK   27  A    between atoms: _66  and  _68
REMARK   28  A    between atoms: _68  and  _69
REMARK   29  A    between atoms: _71  and  _73
REMARK   30  A    between atoms: _73  and  _74
REMARK   31  A    between atoms: _77  and  _79
REMARK   32  A    between atoms: _79  and  _80
REMARK   33  A    between atoms: _79  and  _82
REMARK   34  A    between atoms: _82  and  _83
REMARK   35  A    between atoms: _86  and  _88
REMARK   36  A    between atoms: _88  and  _89
REMARK   37  A    between atoms: _88  and  _91
REMARK   38  A    between atoms: _91  and  _92
REMARK   39  A    between atoms: _97  and  _99
REMARK   40  A    between atoms: _99  and  _100
REMARK   41  A    between atoms: _99  and  _102
REMARK   42  A    between atoms: _102  and  _103
REMARK   43  A    between atoms: _106  and  _108
REMARK   44  A    between atoms: _108  and  _109
REMARK   45  A    between atoms: _108  and  _111
REMARK   46  A    between atoms: _111  and  _112
REMARK   47  A    between atoms: _115  and  _117
REMARK   48  A    between atoms: _117  and  _118
REMARK   49  A    between atoms: _117  and  _120
REMARK   50  A    between atoms: _120  and  _121
REMARK   51  A    between atoms: _121  and  _122
REMARK   52  A    between atoms: _124  and  _126
REMARK   53  A    between atoms: _126  and  _127
REMARK   54  A    between atoms: _126  and  _129
REMARK   55  A    between atoms: _132  and  _134
REMARK   56  A    between atoms: _134  and  _135
REMARK   57  A    between atoms: _137  and  _139
REMARK   58  A    between atoms: _139  and  _140
REMARK   59  A    between atoms: _142  and  _144
REMARK   60  A    between atoms: _144  and  _145
REMARK   61  A    between atoms: _144  and  _147
REMARK   62  A    between atoms: _147  and  _148
REMARK   63  A    between atoms: _151  and  _153
REMARK   64  A    between atoms: _153  and  _154
REMARK   65  A    between atoms: _156  and  _158
REMARK   66  A    between atoms: _158  and  _159
REMARK   67  A    between atoms: _161  and  _163
REMARK   68  A    between atoms: _163  and  _164
REMARK   69  A    between atoms: _163  and  _166
REMARK   70  A    between atoms: _166  and  _167
REMARK   71  A    between atoms: _173  and  _175
REMARK   72  A    between atoms: _175  and  _176
REMARK   73  A    between atoms: _175  and  _178
REMARK   74  A    between atoms: _178  and  _179
REMARK   75  A    between atoms: _182  and  _184
REMARK   76  A    between atoms: _184  and  _185
REMARK   77  A    between atoms: _184  and  _187
REMARK   78  A    between atoms: _187  and  _188
REMARK   79  A    between atoms: _191  and  _193
REMARK   80  A    between atoms: _193  and  _194
REMARK   81  A    between atoms: _193  and  _196
REMARK   82  A    between atoms: _196  and  _197
REMARK   83  A    between atoms: _201  and  _202
REMARK   84  A    between atoms: _207  and  _209
REMARK   85  A    between atoms: _209  and  _210
REMARK   86  A    between atoms: _209  and  _212
REMARK   87  A    between atoms: _215  and  _217
REMARK   88  A    between atoms: _217  and  _218
REMARK   89  A    between atoms: _217  and  _220
REMARK   90  A    between atoms: _220  and  _221
REMARK   91  A    between atoms: _226  and  _228
REMARK   92  A    between atoms: _228  and  _229
REMARK   93  A    between atoms: _228  and  _231
REMARK   94  A    between atoms: _234  and  _236
REMARK   95  A    between atoms: _236  and  _237
REMARK   96  A    between atoms: _239  and  _241
REMARK   97  A    between atoms: _241  and  _242
REMARK   98  A    between atoms: _241  and  _244
REMARK   99  A    between atoms: _244  and  _245
REMARK  100  A    between atoms: _245  and  _246
REMARK  101  A    between atoms: _246  and  _247
REMARK  102  A    between atoms: _256  and  _258
REMARK  103  A    between atoms: _258  and  _259
REMARK  104  A    between atoms: _258  and  _261
REMARK  105  A    between atoms: _261  and  _262
REMARK  106  A    between atoms: _265  and  _267
REMARK  107  A    between atoms: _267  and  _268
REMARK  108  A    between atoms: _267  and  _270
REMARK  109  A    between atoms: _270  and  _271
REMARK  110  A    between atoms: _271  and  _272
REMARK  111  A    between atoms: _272  and  _273
REMARK  112  A    between atoms: _282  and  _284
REMARK  113  A    between atoms: _284  and  _285
REMARK  114  A    between atoms: _284  and  _287
REMARK  115  A    between atoms: _287  and  _288
REMARK  116  A    between atoms: _294  and  _296
REMARK  117  A    between atoms: _296  and  _297
REMARK  118  A    between atoms: _296  and  _299
REMARK  119  A    between atoms: _299  and  _300
REMARK  120  A    between atoms: _303  and  _305
REMARK  121  A    between atoms: _305  and  _306
REMARK  122  A    between atoms: _305  and  _308
REMARK  123  A    between atoms: _308  and  _309
REMARK  124  A    between atoms: _312  and  _314
REMARK  125  A    between atoms: _314  and  _315
REMARK  126  A    between atoms: _314  and  _317
REMARK  127  A    between atoms: _317  and  _318
REMARK  128  A    between atoms: _321  and  _323
REMARK  129  A    between atoms: _323  and  _324
REMARK  130  A    between atoms: _323  and  _326
REMARK  131  A    between atoms: _326  and  _327
REMARK  132  A    between atoms: _330  and  _332
REMARK  133  A    between atoms: _332  and  _333
REMARK  134  A    between atoms: _335  and  _337
REMARK  135  A    between atoms: _337  and  _338
REMARK  136  A    between atoms: _341  and  _343
REMARK  137  A    between atoms: _343  and  _344
REMARK  138  A    between atoms: _343  and  _346
REMARK  139  A    between atoms: _346  and  _347
REMARK  140  A    between atoms: _350  and  _352
REMARK  141  A    between atoms: _352  and  _353
REMARK  142  A    between atoms: _352  and  _355
REMARK  143  A    between atoms: _355  and  _356
REMARK  144  A    between atoms: _361  and  _363
REMARK  145  A    between atoms: _363  and  _364
REMARK  146  A    between atoms: _363  and  _366
REMARK  147  A    between atoms: _366  and  _367
REMARK  148  A    between atoms: _370  and  _372
REMARK  149  A    between atoms: _372  and  _373
REMARK  150  A    between atoms: _372  and  _375
REMARK  151  A    between atoms: _375  and  _376
REMARK  152  A    between atoms: _379  and  _381
REMARK  153  A    between atoms: _381  and  _382
REMARK  154  A    between atoms: _381  and  _384
REMARK  155  A    between atoms: _384  and  _385
REMARK  156  A    between atoms: _385  and  _386
REMARK  157  A    between atoms: _388  and  _390
REMARK  158  A    between atoms: _390  and  _391
REMARK  159  A    between atoms: _390  and  _393
REMARK  160  A    between atoms: _396  and  _398
REMARK  161  A    between atoms: _398  and  _399
REMARK  162  A    between atoms: _401  and  _403
REMARK  163  A    between atoms: _403  and  _404
REMARK  164  A    between atoms: _406  and  _408
REMARK  165  A    between atoms: _408  and  _409
REMARK  166  A    between atoms: _408  and  _411
REMARK  167  A    between atoms: _411  and  _412
REMARK  168  A    between atoms: _415  and  _417
REMARK  169  A    between atoms: _417  and  _418
REMARK  170  A    between atoms: _420  and  _422
REMARK  171  A    between atoms: _422  and  _423
REMARK  172  A    between atoms: _425  and  _427
REMARK  173  A    between atoms: _427  and  _428
REMARK  174  A    between atoms: _427  and  _430
REMARK  175  A    between atoms: _430  and  _431
REMARK  176  A    between atoms: _437  and  _439
REMARK  177  A    between atoms: _439  and  _440
REMARK  178  A    between atoms: _439  and  _442
REMARK  179  A    between atoms: _442  and  _443
REMARK  180  A    between atoms: _446  and  _448
REMARK  181  A    between atoms: _448  and  _449
REMARK  182  A    between atoms: _448  and  _451
REMARK  183  A    between atoms: _454  and  _456
REMARK  184  A    between atoms: _456  and  _457
REMARK  185  A    between atoms: _456  and  _459
REMARK  186  A    between atoms: _459  and  _460
REMARK  187  A    between atoms: _463  and  _465
REMARK  188  A    between atoms: _465  and  _466
REMARK  189  A    between atoms: _465  and  _468
REMARK  190  A    between atoms: _468  and  _469
REMARK  191  A    between atoms: _473  and  _474
REMARK  192  A    between atoms: _479  and  _481
REMARK  193  A    between atoms: _481  and  _482
REMARK  194  A    between atoms: _481  and  _484
REMARK  195  A    between atoms: _487  and  _489
REMARK  196  A    between atoms: _489  and  _490
REMARK  197  A    between atoms: _489  and  _492
REMARK  198  A    between atoms: _492  and  _493
REMARK  199  A    between atoms: _498  and  _500
REMARK  200  A    between atoms: _500  and  _501
REMARK  201  A    between atoms: _500  and  _503
REMARK  202  A    between atoms: _506  and  _508
REMARK  203  A    between atoms: _508  and  _509
REMARK  204  A    between atoms: _508  and  _511
REMARK  205  A    between atoms: _511  and  _512
REMARK  206  A    between atoms: _515  and  _517
REMARK  207  A    between atoms: _517  and  _518
REMARK  208  A    between atoms: _520  and  _522
REMARK  209  A    between atoms: _522  and  _523
REMARK  210  A    between atoms: _522  and  _525
REMARK  211  A    between atoms: _525  and  _526
REMARK  212  A    between atoms: _526  and  _527
REMARK  213  A    between atoms: _527  and  _528
REMARK  214  A    between atoms: _537  and  _539
REMARK  215  A    between atoms: _539  and  _540
REMARK  216  A    between atoms: _539  and  _542
REMARK  217  A    between atoms: _542  and  _543
REMARK                            x       y       z     vdW  Elec       q    Type
REMARK                         _______ _______ _______ _____ _____    ______ ____
ROOT
ATOM      1  CA  VAL A   1     -10.350  -4.410 -10.723  0.00  0.00    +0.133 C 
ENDROOT
BRANCH   1   2
ATOM      2  CB  VAL A   1     -11.703  -4.018 -10.223  0.00  0.00    +0.023 C 
ATOM      3  CG2 VAL A   1     -11.791  -4.045  -8.633  0.00  0.00    +0.002 C 
ATOM      4  CG1 VAL A   1     -12.054  -2.698 -10.846  0.00  0.00    +0.002 C 
ENDBRANCH   1   2
BRANCH   1   5
ATOM      5  N   VAL A   1      -9.328  -3.546 -10.071  0.00  0.00    -0.239 NA
ATOM      6  H   VAL A   1      -9.112  -2.610 -10.469  0.00  0.00    +0.142 HD
ENDBRANCH   1   5
BRANCH   1   7
ATOM      7  C   VAL A   1     -10.302  -4.453 -12.297  0.00  0.00    +0.224 C 
ATOM      8  O   VAL A   1      -9.715  -3.614 -12.961  0.00  0.00    -0.287 OA
ENDBRANCH   1   7
TORSDOF 3
REMARK  Name = ../refined-set-2016/4yhq/4yhq_pocket.pdb
REMARK  217 active torsions:
REMARK  status: ('A' for Active; 'I' for Inactive)
REMARK    1  A    between atoms: _1  and  _3
REMARK    2  A    between atoms: _3  and  _4
REMARK    3  A    between atoms: _3  and  _6
REMARK    4  A    between atoms: _6  and  _7
REMARK    5  A    between atoms: _7  and  _8
REMARK    6  A    between atoms: _8  and  _9
REMARK    7  A    between atoms: _18  and  _20
REMARK    8  A    between atoms: _20  and  _21
REMARK    9  A    between atoms: _20  and  _23
REMARK   10  A    between atoms: _23  and  _24
REMARK   11  A    between atoms: _30  and  _32
REMARK   12  A    between atoms: _32  and  _33
REMARK   13  A    between atoms: _32  and  _35
REMARK   14  A    between atoms: _35  and  _36
REMARK   15  A    between atoms: _39  and  _41
REMARK   16  A    between atoms: _41  and  _42
REMARK   17  A    between atoms: _41  and  _44
REMARK   18  A    between atoms: _44  and  _45
REMARK   19  A    between atoms: _48  and  _50
REMARK   20  A    between atoms: _50  and  _51
REMARK   21  A    between atoms: _50  and  _53
REMARK   22  A    between atoms: _53  and  _54
REMARK   23  A    between atoms: _57  and  _59
REMARK   24  A    between atoms: _59  and  _60
REMARK   25  A    between atoms: _59  and  _62
REMARK   26  A    between atoms: _62  and  _63
REMARK   27  A    between atoms: _66  and  _68
REMARK   28  A    between atoms: _68  and  _69
REMARK   29  A    between atoms: _71  and  _73
REMARK   30  A    between atoms: _73  and  _74
REMARK   31  A    between atoms: _77  and  _79
REMARK   32  A    between atoms: _79  and  _80
REMARK   33  A    between atoms: _79  and  _82
REMARK   34  A    between atoms: _82  and  _83
REMARK   35  A    between atoms: _86  and  _88
REMARK   36  A    between atoms: _88  and  _89
REMARK   37  A    between atoms: _88  and  _91
REMARK   38  A    between atoms: _91  and  _92
REMARK   39  A    between atoms: _97  and  _99
REMARK   40  A    between atoms: _99  and  _100
REMARK   41  A    between atoms: _99  and  _102
REMARK   42  A    between atoms: _102  and  _103
REMARK   43  A    between atoms: _106  and  _108
REMARK   44  A    between atoms: _108  and  _109
REMARK   45  A    between atoms: _108  and  _111
REMARK   46  A    between atoms: _111  and  _112
REMARK   47  A    between atoms: _115  and  _117
REMARK   48  A    between atoms: _117  and  _118
REMARK   49  A    between atoms: _117  and  _120
REMARK   50  A    between atoms: _120  and  _121
REMARK   51  A    between atoms: _121  and  _122
REMARK   52  A    between atoms: _124  and  _126
REMARK   53  A    between atoms: _126  and  _127
REMARK   54  A    between atoms: _126  and  _129
REMARK   55  A    between atoms: _132  and  _134
REMARK   56  A    between atoms: _134  and  _135
REMARK   57  A    between atoms: _137  and  _139
REMARK   58  A    between atoms: _139  and  _140
REMARK   59  A    between atoms: _142  and  _144
REMARK   60  A    between atoms: _144  and  _145
REMARK   61  A    between atoms: _144  and  _147
REMARK   62  A    between atoms: _147  and  _148
REMARK   63  A    between atoms: _151  and  _153
REMARK   64  A    between atoms: _153  and  _154
REMARK   65  A    between atoms: _156  and  _158
REMARK   66  A    between atoms: _158  and  _159
REMARK   67  A    between atoms: _161  and  _163
REMARK   68  A    between atoms: _163  and  _164
REMARK   69  A    between atoms: _163  and  _166
REMARK   70  A    between atoms: _166  and  _167
REMARK   71  A    between atoms: _173  and  _175
REMARK   72  A    between atoms: _175  and  _176
REMARK   73  A    between atoms: _175  and  _178
REMARK   74  A    between atoms: _178  and  _179
REMARK   75  A    between atoms: _182  and  _184
REMARK   76  A    between atoms: _184  and  _185
REMARK   77  A    between atoms: _184  and  _187
REMARK   78  A    between atoms: _187  and  _188
REMARK   79  A    between atoms: _191  and  _193
REMARK   80  A    between atoms: _193  and  _194
REMARK   81  A    between atoms: _193  and  _196
REMARK   82  A    between atoms: _196  and  _197
REMARK   83  A    between atoms: _201  and  _202
REMARK   84  A    between atoms: _207  and  _209
REMARK   85  A    between atoms: _209  and  _210
REMARK   86  A    between atoms: _209  and  _212
REMARK   87  A    between atoms: _215  and  _217
REMARK   88  A    between atoms: _217  and  _218
REMARK   89  A    between atoms: _217  and  _220
REMARK   90  A    between atoms: _220  and  _221
REMARK   91  A    between atoms: _226  and  _228
REMARK   92  A    between atoms: _228  and  _229
REMARK   93  A    between atoms: _228  and  _231
REMARK   94  A    between atoms: _234  and  _236
REMARK   95  A    between atoms: _236  and  _237
REMARK   96  A    between atoms: _239  and  _241
REMARK   97  A    between atoms: _241  and  _242
REMARK   98  A    between atoms: _241  and  _244
REMARK   99  A    between atoms: _244  and  _245
REMARK  100  A    between atoms: _245  and  _246
REMARK  101  A    between atoms: _246  and  _247
REMARK  102  A    between atoms: _256  and  _258
REMARK  103  A    between atoms: _258  and  _259
REMARK  104  A    between atoms: _258  and  _261
REMARK  105  A    between atoms: _261  and  _262
REMARK  106  A    between atoms: _265  and  _267
REMARK  107  A    between atoms: _267  and  _268
REMARK  108  A    between atoms: _267  and  _270
REMARK  109  A    between atoms: _270  and  _271
REMARK  110  A    between atoms: _271  and  _272
REMARK  111  A    between atoms: _272  and  _273
REMARK  112  A    between atoms: _282  and  _284
REMARK  113  A    between atoms: _284  and  _285
REMARK  114  A    between atoms: _284  and  _287
REMARK  115  A    between atoms: _287  and  _288
REMARK  116  A    between atoms: _294  and  _296
REMARK  117  A    between atoms: _296  and  _297
REMARK  118  A    between atoms: _296  and  _299
REMARK  119  A    between atoms: _299  and  _300
REMARK  120  A    between atoms: _303  and  _305
REMARK  121  A    between atoms: _305  and  _306
REMARK  122  A    between atoms: _305  and  _308
REMARK  123  A    between atoms: _308  and  _309
REMARK  124  A    between atoms: _312  and  _314
REMARK  125  A    between atoms: _314  and  _315
REMARK  126  A    between atoms: _314  and  _317
REMARK  127  A    between atoms: _317  and  _318
REMARK  128  A    between atoms: _321  and  _323
REMARK  129  A    between atoms: _323  and  _324
REMARK  130  A    between atoms: _323  and  _326
REMARK  131  A    between atoms: _326  and  _327
REMARK  132  A    between atoms: _330  and  _332
REMARK  133  A    between atoms: _332  and  _333
REMARK  134  A    between atoms: _335  and  _337
REMARK  135  A    between atoms: _337  and  _338
REMARK  136  A    between atoms: _341  and  _343
REMARK  137  A    between atoms: _343  and  _344
REMARK  138  A    between atoms: _343  and  _346
REMARK  139  A    between atoms: _346  and  _347
REMARK  140  A    between atoms: _350  and  _352
REMARK  141  A    between atoms: _352  and  _353
REMARK  142  A    between atoms: _352  and  _355
REMARK  143  A    between atoms: _355  and  _356
REMARK  144  A    between atoms: _361  and  _363
REMARK  145  A    between atoms: _363  and  _364
REMARK  146  A    between atoms: _363  and  _366
REMARK  147  A    between atoms: _366  and  _367
REMARK  148  A    between atoms: _370  and  _372
REMARK  149  A    between atoms: _372  and  _373
REMARK  150  A    between atoms: _372  and  _375
REMARK  151  A    between atoms: _375  and  _376
REMARK  152  A    between atoms: _379  and  _381
REMARK  153  A    between atoms: _381  and  _382
REMARK  154  A    between atoms: _381  and  _384
REMARK  155  A    between atoms: _384  and  _385
REMARK  156  A    between atoms: _385  and  _386
REMARK  157  A    between atoms: _388  and  _390
REMARK  158  A    between atoms: _390  and  _391
REMARK  159  A    between atoms: _390  and  _393
REMARK  160  A    between atoms: _396  and  _398
REMARK  161  A    between atoms: _398  and  _399
REMARK  162  A    between atoms: _401  and  _403
REMARK  163  A    between atoms: _403  and  _404
REMARK  164  A    between atoms: _406  and  _408
REMARK  165  A    between atoms: _408  and  _409
REMARK  166  A    between atoms: _408  and  _411
REMARK  167  A    between atoms: _411  and  _412
REMARK  168  A    between atoms: _415  and  _417
REMARK  169  A    between atoms: _417  and  _418
REMARK  170  A    between atoms: _420  and  _422
REMARK  171  A    between atoms: _422  and  _423
REMARK  172  A    between atoms: _425  and  _427
REMARK  173  A    between atoms: _427  and  _428
REMARK  174  A    between atoms: _427  and  _430
REMARK  175  A    between atoms: _430  and  _431
REMARK  176  A    between atoms: _437  and  _439
REMARK  177  A    between atoms: _439  and  _440
REMARK  178  A    between atoms: _439  and  _442
REMARK  179  A    between atoms: _442  and  _443
REMARK  180  A    between atoms: _446  and  _448
REMARK  181  A    between atoms: _448  and  _449
REMARK  182  A    between atoms: _448  and  _451
REMARK  183  A    between atoms: _454  and  _456
REMARK  184  A    between atoms: _456  and  _457
REMARK  185  A    between atoms: _456  and  _459
REMARK  186  A    between atoms: _459  and  _460
REMARK  187  A    between atoms: _463  and  _465
REMARK  188  A    between atoms: _465  and  _466
REMARK  189  A    between atoms: _465  and  _468
REMARK  190  A    between atoms: _468  and  _469
REMARK  191  A    between atoms: _473  and  _474
REMARK  192  A    between atoms: _479  and  _481
REMARK  193  A    between atoms: _481  and  _482
REMARK  194  A    between atoms: _481  and  _484
REMARK  195  A    between atoms: _487  and  _489
REMARK  196  A    between atoms: _489  and  _490
REMARK  197  A    between atoms: _489  and  _492
REMARK  198  A    between atoms: _492  and  _493
REMARK  199  A    between atoms: _498  and  _500
REMARK  200  A    between atoms: _500  and  _501
REMARK  201  A    between atoms: _500  and  _503
REMARK  202  A    between atoms: _506  and  _508
REMARK  203  A    between atoms: _508  and  _509
REMARK  204  A    between atoms: _508  and  _511
REMARK  205  A    between atoms: _511  and  _512
REMARK  206  A    between atoms: _515  and  _517
REMARK  207  A    between atoms: _517  and  _518
REMARK  208  A    between atoms: _520  and  _522
REMARK  209  A    between atoms: _522  and  _523
REMARK  210  A    between atoms: _522  and  _525
REMARK  211  A    between atoms: _525  and  _526
REMARK  212  A    between atoms: _526  and  _527
REMARK  213  A    between atoms: _527  and  _528
REMARK  214  A    between atoms: _537  and  _539
REMARK  215  A    between atoms: _539  and  _540
REMARK  216  A    between atoms: _539  and  _542
REMARK  217  A    between atoms: _542  and  _543
REMARK                            x       y       z     vdW  Elec       q    Type
REMARK                         _______ _______ _______ _____ _____    ______ ____
ROOT
ATOM      1  CA  LEU A   1     -16.116  -5.317 -11.779  0.00  0.00    +0.133 C 
ENDROOT
BRANCH   1   2
ATOM      2  N   LEU A   1     -17.513  -5.361 -12.104  0.00  0.00    -0.239 NA
ATOM      3  H   LEU A   1     -18.198  -5.074 -11.376  0.00  0.00    +0.142 HD
ENDBRANCH   1   2
BRANCH   1   4
ATOM      4  C   LEU A   1     -15.695  -6.614 -11.112  0.00  0.00    +0.224 C 
ATOM      5  O   LEU A   1     -16.445  -7.218 -10.372  0.00  0.00    -0.287 OA
ENDBRANCH   1   4
BRANCH   1   6
ATOM      6  CB  LEU A   1     -15.842  -4.177 -10.787  0.00  0.00    +0.025 C 
BRANCH   6   7
ATOM      7  CG  LEU A   1     -16.352  -2.826 -11.289  0.00  0.00    +0.002 C 
ATOM      8  CD2 LEU A   1     -16.139  -1.816 -10.130  0.00  0.00    +0.000 C 
ATOM      9  CD1 LEU A   1     -15.615  -2.397 -12.536  0.00  0.00    +0.000 C 
ENDBRANCH   6   7
ENDBRANCH   1   6
TORSDOF 4
REMARK  Name = ../refined-set-2016/4yhq/4yhq_pocket.pdb
REMARK  217 active torsions:
REMARK  status: ('A' for Active; 'I' for Inactive)
REMARK    1  A    between atoms: _1  and  _3
REMARK    2  A    between atoms: _3  and  _4
REMARK    3  A    between atoms: _3  and  _6
REMARK    4  A    between atoms: _6  and  _7
REMARK    5  A    between atoms: _7  and  _8
REMARK    6  A    between atoms: _8  and  _9
REMARK    7  A    between atoms: _18  and  _20
REMARK    8  A    between atoms: _20  and  _21
REMARK    9  A    between atoms: _20  and  _23
REMARK   10  A    between atoms: _23  and  _24
REMARK   11  A    between atoms: _30  and  _32
REMARK   12  A    between atoms: _32  and  _33
REMARK   13  A    between atoms: _32  and  _35
REMARK   14  A    between atoms: _35  and  _36
REMARK   15  A    between atoms: _39  and  _41
REMARK   16  A    between atoms: _41  and  _42
REMARK   17  A    between atoms: _41  and  _44
REMARK   18  A    between atoms: _44  and  _45
REMARK   19  A    between atoms: _48  and  _50
REMARK   20  A    between atoms: _50  and  _51
REMARK   21  A    between atoms: _50  and  _53
REMARK   22  A    between atoms: _53  and  _54
REMARK   23  A    between atoms: _57  and  _59
REMARK   24  A    between atoms: _59  and  _60
REMARK   25  A    between atoms: _59  and  _62
REMARK   26  A    between atoms: _62  and  _63
REMARK   27  A    between atoms: _66  and  _68
REMARK   28  A    between atoms: _68  and  _69
REMARK   29  A    between atoms: _71  and  _73
REMARK   30  A    between atoms: _73  and  _74
REMARK   31  A    between atoms: _77  and  _79
REMARK   32  A    between atoms: _79  and  _80
REMARK   33  A    between atoms: _79  and  _82
REMARK   34  A    between atoms: _82  and  _83
REMARK   35  A    between atoms: _86  and  _88
REMARK   36  A    between atoms: _88  and  _89
REMARK   37  A    between atoms: _88  and  _91
REMARK   38  A    between atoms: _91  and  _92
REMARK   39  A    between atoms: _97  and  _99
REMARK   40  A    between atoms: _99  and  _100
REMARK   41  A    between atoms: _99  and  _102
REMARK   42  A    between atoms: _102  and  _103
REMARK   43  A    between atoms: _106  and  _108
REMARK   44  A    between atoms: _108  and  _109
REMARK   45  A    between atoms: _108  and  _111
REMARK   46  A    between atoms: _111  and  _112
REMARK   47  A    between atoms: _115  and  _117
REMARK   48  A    between atoms: _117  and  _118
REMARK   49  A    between atoms: _117  and  _120
REMARK   50  A    between atoms: _120  and  _121
REMARK   51  A    between atoms: _121  and  _122
REMARK   52  A    between atoms: _124  and  _126
REMARK   53  A    between atoms: _126  and  _127
REMARK   54  A    between atoms: _126  and  _129
REMARK   55  A    between atoms: _132  and  _134
REMARK   56  A    between atoms: _134  and  _135
REMARK   57  A    between atoms: _137  and  _139
REMARK   58  A    between atoms: _139  and  _140
REMARK   59  A    between atoms: _142  and  _144
REMARK   60  A    between atoms: _144  and  _145
REMARK   61  A    between atoms: _144  and  _147
REMARK   62  A    between atoms: _147  and  _148
REMARK   63  A    between atoms: _151  and  _153
REMARK   64  A    between atoms: _153  and  _154
REMARK   65  A    between atoms: _156  and  _158
REMARK   66  A    between atoms: _158  and  _159
REMARK   67  A    between atoms: _161  and  _163
REMARK   68  A    between atoms: _163  and  _164
REMARK   69  A    between atoms: _163  and  _166
REMARK   70  A    between atoms: _166  and  _167
REMARK   71  A    between atoms: _173  and  _175
REMARK   72  A    between atoms: _175  and  _176
REMARK   73  A    between atoms: _175  and  _178
REMARK   74  A    between atoms: _178  and  _179
REMARK   75  A    between atoms: _182  and  _184
REMARK   76  A    between atoms: _184  and  _185
REMARK   77  A    between atoms: _184  and  _187
REMARK   78  A    between atoms: _187  and  _188
REMARK   79  A    between atoms: _191  and  _193
REMARK   80  A    between atoms: _193  and  _194
REMARK   81  A    between atoms: _193  and  _196
REMARK   82  A    between atoms: _196  and  _197
REMARK   83  A    between atoms: _201  and  _202
REMARK   84  A    between atoms: _207  and  _209
REMARK   85  A    between atoms: _209  and  _210
REMARK   86  A    between atoms: _209  and  _212
REMARK   87  A    between atoms: _215  and  _217
REMARK   88  A    between atoms: _217  and  _218
REMARK   89  A    between atoms: _217  and  _220
REMARK   90  A    between atoms: _220  and  _221
REMARK   91  A    between atoms: _226  and  _228
REMARK   92  A    between atoms: _228  and  _229
REMARK   93  A    between atoms: _228  and  _231
REMARK   94  A    between atoms: _234  and  _236
REMARK   95  A    between atoms: _236  and  _237
REMARK   96  A    between atoms: _239  and  _241
REMARK   97  A    between atoms: _241  and  _242
REMARK   98  A    between atoms: _241  and  _244
REMARK   99  A    between atoms: _244  and  _245
REMARK  100  A    between atoms: _245  and  _246
REMARK  101  A    between atoms: _246  and  _247
REMARK  102  A    between atoms: _256  and  _258
REMARK  103  A    between atoms: _258  and  _259
REMARK  104  A    between atoms: _258  and  _261
REMARK  105  A    between atoms: _261  and  _262
REMARK  106  A    between atoms: _265  and  _267
REMARK  107  A    between atoms: _267  and  _268
REMARK  108  A    between atoms: _267  and  _270
REMARK  109  A    between atoms: _270  and  _271
REMARK  110  A    between atoms: _271  and  _272
REMARK  111  A    between atoms: _272  and  _273
REMARK  112  A    between atoms: _282  and  _284
REMARK  113  A    between atoms: _284  and  _285
REMARK  114  A    between atoms: _284  and  _287
REMARK  115  A    between atoms: _287  and  _288
REMARK  116  A    between atoms: _294  and  _296
REMARK  117  A    between atoms: _296  and  _297
REMARK  118  A    between atoms: _296  and  _299
REMARK  119  A    between atoms: _299  and  _300
REMARK  120  A    between atoms: _303  and  _305
REMARK  121  A    between atoms: _305  and  _306
REMARK  122  A    between atoms: _305  and  _308
REMARK  123  A    between atoms: _308  and  _309
REMARK  124  A    between atoms: _312  and  _314
REMARK  125  A    between atoms: _314  and  _315
REMARK  126  A    between atoms: _314  and  _317
REMARK  127  A    between atoms: _317  and  _318
REMARK  128  A    between atoms: _321  and  _323
REMARK  129  A    between atoms: _323  and  _324
REMARK  130  A    between atoms: _323  and  _326
REMARK  131  A    between atoms: _326  and  _327
REMARK  132  A    between atoms: _330  and  _332
REMARK  133  A    between atoms: _332  and  _333
REMARK  134  A    between atoms: _335  and  _337
REMARK  135  A    between atoms: _337  and  _338
REMARK  136  A    between atoms: _341  and  _343
REMARK  137  A    between atoms: _343  and  _344
REMARK  138  A    between atoms: _343  and  _346
REMARK  139  A    between atoms: _346  and  _347
REMARK  140  A    between atoms: _350  and  _352
REMARK  141  A    between atoms: _352  and  _353
REMARK  142  A    between atoms: _352  and  _355
REMARK  143  A    between atoms: _355  and  _356
REMARK  144  A    between atoms: _361  and  _363
REMARK  145  A    between atoms: _363  and  _364
REMARK  146  A    between atoms: _363  and  _366
REMARK  147  A    between atoms: _366  and  _367
REMARK  148  A    between atoms: _370  and  _372
REMARK  149  A    between atoms: _372  and  _373
REMARK  150  A    between atoms: _372  and  _375
REMARK  151  A    between atoms: _375  and  _376
REMARK  152  A    between atoms: _379  and  _381
REMARK  153  A    between atoms: _381  and  _382
REMARK  154  A    between atoms: _381  and  _384
REMARK  155  A    between atoms: _384  and  _385
REMARK  156  A    between atoms: _385  and  _386
REMARK  157  A    between atoms: _388  and  _390
REMARK  158  A    between atoms: _390  and  _391
REMARK  159  A    between atoms: _390  and  _393
REMARK  160  A    between atoms: _396  and  _398
REMARK  161  A    between atoms: _398  and  _399
REMARK  162  A    between atoms: _401  and  _403
REMARK  163  A    between atoms: _403  and  _404
REMARK  164  A    between atoms: _406  and  _408
REMARK  165  A    between atoms: _408  and  _409
REMARK  166  A    between atoms: _408  and  _411
REMARK  167  A    between atoms: _411  and  _412
REMARK  168  A    between atoms: _415  and  _417
REMARK  169  A    between atoms: _417  and  _418
REMARK  170  A    between atoms: _420  and  _422
REMARK  171  A    between atoms: _422  and  _423
REMARK  172  A    between atoms: _425  and  _427
REMARK  173  A    between atoms: _427  and  _428
REMARK  174  A    between atoms: _427  and  _430
REMARK  175  A    between atoms: _430  and  _431
REMARK  176  A    between atoms: _437  and  _439
REMARK  177  A    between atoms: _439  and  _440
REMARK  178  A    between atoms: _439  and  _442
REMARK  179  A    between atoms: _442  and  _443
REMARK  180  A    between atoms: _446  and  _448
REMARK  181  A    between atoms: _448  and  _449
REMARK  182  A    between atoms: _448  and  _451
REMARK  183  A    between atoms: _454  and  _456
REMARK  184  A    between atoms: _456  and  _457
REMARK  185  A    between atoms: _456  and  _459
REMARK  186  A    between atoms: _459  and  _460
REMARK  187  A    between atoms: _463  and  _465
REMARK  188  A    between atoms: _465  and  _466
REMARK  189  A    between atoms: _465  and  _468
REMARK  190  A    between atoms: _468  and  _469
REMARK  191  A    between atoms: _473  and  _474
REMARK  192  A    between atoms: _479  and  _481
REMARK  193  A    between atoms: _481  and  _482
REMARK  194  A    between atoms: _481  and  _484
REMARK  195  A    between atoms: _487  and  _489
REMARK  196  A    between atoms: _489  and  _490
REMARK  197  A    between atoms: _489  and  _492
REMARK  198  A    between atoms: _492  and  _493
REMARK  199  A    between atoms: _498  and  _500
REMARK  200  A    between atoms: _500  and  _501
REMARK  201  A    between atoms: _500  and  _503
REMARK  202  A    between atoms: _506  and  _508
REMARK  203  A    between atoms: _508  and  _509
REMARK  204  A    between atoms: _508  and  _511
REMARK  205  A    between atoms: _511  and  _512
REMARK  206  A    between atoms: _515  and  _517
REMARK  207  A    between atoms: _517  and  _518
REMARK  208  A    between atoms: _520  and  _522
REMARK  209  A    between atoms: _522  and  _523
REMARK  210  A    between atoms: _522  and  _525
REMARK  211  A    between atoms: _525  and  _526
REMARK  212  A    between atoms: _526  and  _527
REMARK  213  A    between atoms: _527  and  _528
REMARK  214  A    between atoms: _537  and  _539
REMARK  215  A    between atoms: _539  and  _540
REMARK  216  A    between atoms: _539  and  _542
REMARK  217  A    between atoms: _542  and  _543
REMARK                            x       y       z     vdW  Elec       q    Type
REMARK                         _______ _______ _______ _____ _____    ______ ____
ROOT
ATOM      1  C   VAL A   5     -21.939  -6.165  -4.519  0.00  0.00    +0.241 C 
ATOM      2  N   ILE A   6     -23.214  -5.992  -4.292  0.00  0.00    -0.297 N 
ATOM      3  H   ILE A   6     -23.576  -6.232  -3.347  0.00  0.00    +0.150 HD
ATOM      4  O   VAL A   5     -21.359  -6.009  -5.624  0.00  0.00    -0.273 OA
ENDROOT
BRANCH   2   5
ATOM      5  CA  ILE A   6     -24.160  -5.486  -5.273  0.00  0.00    +0.149 C 
BRANCH   5   6
ATOM      6  C   ILE A   6     -24.320  -3.997  -5.047  0.00  0.00    +0.241 C 
ATOM      7  O   ILE A   6     -24.776  -3.584  -3.989  0.00  0.00    -0.273 OA
ATOM      8  N   GLY A   7     -23.910  -3.209  -6.040  0.00  0.00    -0.295 N 
ATOM      9  H   GLY A   7     -23.546  -3.620  -6.923  0.00  0.00    +0.150 HD
BRANCH   8  10
ATOM     10  CA  GLY A   7     -23.978  -1.785  -5.875  0.00  0.00    +0.176 C 
BRANCH  10  11
ATOM     11  C   GLY A   7     -25.186  -1.149  -6.492  0.00  0.00    +0.243 C 
ATOM     12  N   ARG A   8     -25.195   0.196  -6.489  0.00  0.00    -0.297 N 
ATOM     13  H   ARG A   8     -24.354   0.712  -6.161  0.00  0.00    +0.150 HD
ATOM     14  O   GLY A   7     -26.128  -1.825  -6.972  0.00  0.00    -0.273 OA
BRANCH  12  15
ATOM     15  CA  ARG A   8     -26.362   0.943  -6.937  0.00  0.00    +0.149 C 
BRANCH  15  16
ATOM     16  C   ARG A   8     -26.602   0.764  -8.423  0.00  0.00    +0.241 C 
ATOM     17  O   ARG A   8     -27.747   0.844  -8.873  0.00  0.00    -0.273 OA
ATOM     18  N   ASP A   9     -25.554   0.507  -9.199  0.00  0.00    -0.298 N 
ATOM     19  H   ASP A   9     -24.599   0.506  -8.788  0.00  0.00    +0.150 HD
BRANCH  18  20
ATOM     20  CA  ASP A   9     -25.728   0.223 -10.634  0.00  0.00    +0.148 C 
BRANCH  20  21
ATOM     21  C   ASP A   9     -26.692  -0.928 -10.848  0.00  0.00    +0.227 C 
ATOM     22  O   ASP A   9     -27.595  -0.858 -11.686  0.00  0.00    -0.286 OA
ENDBRANCH  20  21
BRANCH  20  23
ATOM     23  CB  ASP A   9     -24.422   0.005 -11.348  0.00  0.00    +0.142 C 
BRANCH  23  24
ATOM     24  CG  ASP A   9     -23.542  -1.123 -10.756  0.00  0.00    +0.367 C 
ATOM     25  OD2 ASP A   9     -23.788  -1.624  -9.625  0.00  0.00    -0.246 OA
ATOM     26  OD1 ASP A   9     -22.524  -1.473 -11.458  0.00  0.00    -0.246 OA
ENDBRANCH  23  24
ENDBRANCH  20  23
ENDBRANCH  18  20
ENDBRANCH  15  16
BRANCH  15  27
ATOM     27  CB  ARG A   8     -26.199   2.401  -6.608  0.00  0.00    +0.033 C 
BRANCH  27  28
ATOM     28  CG  ARG A   8     -26.210   2.668  -5.087  0.00  0.00    +0.045 C 
BRANCH  28  29
ATOM     29  CD  ARG A   8     -26.289   4.158  -4.755  0.00  0.00    +0.174 C 
BRANCH  29  30
ATOM     30  NE  ARG A   8     -25.154   4.886  -5.289  0.00  0.00    -0.265 N 
ATOM     31  HE  ARG A   8     -24.286   4.862  -4.716  0.00  0.00    +0.259 HD
ATOM     32  CZ  ARG A   8     -25.085   5.583  -6.424  0.00  0.00    +0.342 C 
ATOM     33  NH2 ARG A   8     -23.898   6.055  -6.747  0.00  0.00    -0.292 N 
ATOM     34 HH21 ARG A   8     -23.081   5.876  -6.129  0.00  0.00    +0.255 HD
ATOM     35 HH22 ARG A   8     -23.778   6.607  -7.620  0.00  0.00    +0.255 HD
ATOM     36  NH1 ARG A   8     -26.157   5.811  -7.220  0.00  0.00    -0.292 N 
ATOM     37 HH11 ARG A   8     -27.090   5.435  -6.956  0.00  0.00    +0.255 HD
ATOM     38 HH12 ARG A   8     -26.047   6.362  -8.095  0.00  0.00    +0.255 HD
ENDBRANCH  29  30
ENDBRANCH  28  29
ENDBRANCH  27  28
ENDBRANCH  15  27
ENDBRANCH  12  15
ENDBRANCH  10  11
ENDBRANCH   8  10
ENDBRANCH   5   6
BRANCH   5  39
ATOM     39  CB  ILE A   6     -25.527  -6.198  -5.145  0.00  0.00    +0.027 C 
ATOM     40  CG2 ILE A   6     -26.473  -5.666  -6.206  0.00  0.00    +0.002 C 
BRANCH  39  41
ATOM     41  CG1 ILE A   6     -25.451  -7.712  -5.175  0.00  0.00    +0.002 C 
ATOM     42  CD1 ILE A   6     -24.684  -8.297  -6.426  0.00  0.00    +0.000 C 
ENDBRANCH  39  41
ENDBRANCH   5  39
ENDBRANCH   2   5
BRANCH   1  43
ATOM     43  CA  VAL A   5     -21.179  -6.458  -3.271  0.00  0.00    +0.149 C 
BRANCH  43  46
ATOM     44  C   ASN A   4     -19.930  -8.491  -2.759  0.00  0.00    +0.241 C 
ATOM     45  O   ASN A   4     -20.659  -8.645  -1.745  0.00  0.00    -0.273 OA
ATOM     46  N   VAL A   5     -20.096  -7.435  -3.567  0.00  0.00    -0.297 N 
ATOM     47  H   VAL A   5     -19.476  -7.300  -4.391  0.00  0.00    +0.150 HD
BRANCH  44  48
ATOM     48  CA  ASN A   4     -18.845  -9.521  -3.103  0.00  0.00    +0.158 C 
BRANCH  48  51
ATOM     49  C   VAL A   3     -17.500  -9.105  -1.151  0.00  0.00    +0.241 C 
ATOM     50  O   VAL A   3     -17.335  -7.916  -1.502  0.00  0.00    -0.273 OA
ATOM     51  N   ASN A   4     -18.222  -9.947  -1.836  0.00  0.00    -0.297 N 
ATOM     52  H   ASN A   4     -18.358 -10.918  -1.489  0.00  0.00    +0.150 HD
BRANCH  49  53
ATOM     53  CA  VAL A   3     -16.906  -9.661   0.127  0.00  0.00    +0.149 C 
BRANCH  53  56
ATOM     54  C   PRO A   2     -14.574  -9.785   0.795  0.00  0.00    +0.241 C 
ATOM     55  O   PRO A   2     -14.743 -10.885   1.271  0.00  0.00    -0.273 OA
ATOM     56  N   VAL A   3     -15.578  -9.090   0.251  0.00  0.00    -0.297 N 
ATOM     57  H   VAL A   3     -15.404  -8.123  -0.089  0.00  0.00    +0.150 HD
BRANCH  54  60
ATOM     58  C   THR A   1     -12.961  -8.618  -1.584  0.00  0.00    +0.244 C 
ATOM     59  N   PRO A   2     -13.055  -8.150  -0.320  0.00  0.00    -0.272 N 
ATOM     60  CA  PRO A   2     -13.207  -9.130   0.775  0.00  0.00    +0.152 C 
ATOM     61  CB  PRO A   2     -13.108  -8.213   2.043  0.00  0.00    +0.031 C 
ATOM     62  CG  PRO A   2     -12.415  -7.167   1.621  0.00  0.00    +0.024 C 
ATOM     63  CD  PRO A   2     -12.737  -6.822   0.207  0.00  0.00    +0.094 C 
ATOM     64  O   THR A   1     -13.135  -9.805  -1.859  0.00  0.00    -0.273 OA
BRANCH  58  65
ATOM     65  CA  THR A   1     -12.801  -7.585  -2.709  0.00  0.00    +0.172 C 
BRANCH  65  66
ATOM     66  CB  THR A   1     -14.162  -7.105  -3.287  0.00  0.00    +0.135 C 
ATOM     67  CG2 THR A   1     -14.906  -8.272  -3.950  0.00  0.00    +0.034 C 
BRANCH  66  68
ATOM     68  OG1 THR A   1     -14.913  -6.601  -2.172  0.00  0.00    -0.383 OA
ATOM     69  HG1 THR A   1     -15.042  -7.324  -1.508  0.00  0.00    +0.210 HD
ENDBRANCH  66  68
ENDBRANCH  65  66
BRANCH  65  70
ATOM     70  N   THR A   1     -11.989  -8.187  -3.735  0.00  0.00    -0.236 NA
ATOM     71  H   THR A   1     -12.442  -8.386  -4.650  0.00  0.00    +0.142 HD
ENDBRANCH  65  70
ENDBRANCH  58  65
ENDBRANCH  54  60
ENDBRANCH  53  56
BRANCH  53  72
ATOM     72  CB  VAL A   3     -17.839  -9.218   1.324  0.00  0.00    +0.027 C 
ATOM     73  CG2 VAL A   3     -19.082  -9.943   1.339  0.00  0.00    +0.002 C 
ATOM     74  CG1 VAL A   3     -18.100  -7.818   1.151  0.00  0.00    +0.002 C 
ENDBRANCH  53  72
ENDBRANCH  49  53
ENDBRANCH  48  51
BRANCH  48  75
ATOM     75  CB  ASN A   4     -19.467 -10.729  -3.788  0.00  0.00    +0.114 C 
BRANCH  75  76
ATOM     76  CG  ASN A   4     -18.454 -11.766  -4.114  0.00  0.00    +0.222 C 
ATOM     77  ND2 ASN A   4     -18.837 -13.028  -3.963  0.00  0.00    -0.329 N 
ATOM     78 HD21 ASN A   4     -19.801 -13.243  -3.638  0.00  0.00    +0.145 HD
ATOM     79 HD22 ASN A   4     -18.173 -13.801  -4.170  0.00  0.00    +0.145 HD
ATOM     80  OD1 ASN A   4     -17.317 -11.453  -4.499  0.00  0.00    -0.275 OA
ENDBRANCH  75  76
ENDBRANCH  48  75
ENDBRANCH  44  48
ENDBRANCH  43  46
BRANCH  43  81
ATOM     81  CB  VAL A   5     -20.696  -5.102  -2.689  0.00  0.00    +0.027 C 
ATOM     82  CG2 VAL A   5     -20.083  -5.320  -1.300  0.00  0.00    +0.002 C 
ATOM     83  CG1 VAL A   5     -19.668  -4.489  -3.678  0.00  0.00    +0.002 C 
ENDBRANCH  43  81
ENDBRANCH   1  43
TORSDOF 31
REMARK  Name = ../refined-set-2016/4yhq/4yhq_pocket.pdb
REMARK  217 active torsions:
REMARK  status: ('A' for Active; 'I' for Inactive)
REMARK    1  A    between atoms: _1  and  _3
REMARK    2  A    between atoms: _3  and  _4
REMARK    3  A    between atoms: _3  and  _6
REMARK    4  A    between atoms: _6  and  _7
REMARK    5  A    between atoms: _7  and  _8
REMARK    6  A    between atoms: _8  and  _9
REMARK    7  A    between atoms: _18  and  _20
REMARK    8  A    between atoms: _20  and  _21
REMARK    9  A    between atoms: _20  and  _23
REMARK   10  A    between atoms: _23  and  _24
REMARK   11  A    between atoms: _30  and  _32
REMARK   12  A    between atoms: _32  and  _33
REMARK   13  A    between atoms: _32  and  _35
REMARK   14  A    between atoms: _35  and  _36
REMARK   15  A    between atoms: _39  and  _41
REMARK   16  A    between atoms: _41  and  _42
REMARK   17  A    between atoms: _41  and  _44
REMARK   18  A    between atoms: _44  and  _45
REMARK   19  A    between atoms: _48  and  _50
REMARK   20  A    between atoms: _50  and  _51
REMARK   21  A    between atoms: _50  and  _53
REMARK   22  A    between atoms: _53  and  _54
REMARK   23  A    between atoms: _57  and  _59
REMARK   24  A    between atoms: _59  and  _60
REMARK   25  A    between atoms: _59  and  _62
REMARK   26  A    between atoms: _62  and  _63
REMARK   27  A    between atoms: _66  and  _68
REMARK   28  A    between atoms: _68  and  _69
REMARK   29  A    between atoms: _71  and  _73
REMARK   30  A    between atoms: _73  and  _74
REMARK   31  A    between atoms: _77  and  _79
REMARK   32  A    between atoms: _79  and  _80
REMARK   33  A    between atoms: _79  and  _82
REMARK   34  A    between atoms: _82  and  _83
REMARK   35  A    between atoms: _86  and  _88
REMARK   36  A    between atoms: _88  and  _89
REMARK   37  A    between atoms: _88  and  _91
REMARK   38  A    between atoms: _91  and  _92
REMARK   39  A    between atoms: _97  and  _99
REMARK   40  A    between atoms: _99  and  _100
REMARK   41  A    between atoms: _99  and  _102
REMARK   42  A    between atoms: _102  and  _103
REMARK   43  A    between atoms: _106  and  _108
REMARK   44  A    between atoms: _108  and  _109
REMARK   45  A    between atoms: _108  and  _111
REMARK   46  A    between atoms: _111  and  _112
REMARK   47  A    between atoms: _115  and  _117
REMARK   48  A    between atoms: _117  and  _118
REMARK   49  A    between atoms: _117  and  _120
REMARK   50  A    between atoms: _120  and  _121
REMARK   51  A    between atoms: _121  and  _122
REMARK   52  A    between atoms: _124  and  _126
REMARK   53  A    between atoms: _126  and  _127
REMARK   54  A    between atoms: _126  and  _129
REMARK   55  A    between atoms: _132  and  _134
REMARK   56  A    between atoms: _134  and  _135
REMARK   57  A    between atoms: _137  and  _139
REMARK   58  A    between atoms: _139  and  _140
REMARK   59  A    between atoms: _142  and  _144
REMARK   60  A    between atoms: _144  and  _145
REMARK   61  A    between atoms: _144  and  _147
REMARK   62  A    between atoms: _147  and  _148
REMARK   63  A    between atoms: _151  and  _153
REMARK   64  A    between atoms: _153  and  _154
REMARK   65  A    between atoms: _156  and  _158
REMARK   66  A    between atoms: _158  and  _159
REMARK   67  A    between atoms: _161  and  _163
REMARK   68  A    between atoms: _163  and  _164
REMARK   69  A    between atoms: _163  and  _166
REMARK   70  A    between atoms: _166  and  _167
REMARK   71  A    between atoms: _173  and  _175
REMARK   72  A    between atoms: _175  and  _176
REMARK   73  A    between atoms: _175  and  _178
REMARK   74  A    between atoms: _178  and  _179
REMARK   75  A    between atoms: _182  and  _184
REMARK   76  A    between atoms: _184  and  _185
REMARK   77  A    between atoms: _184  and  _187
REMARK   78  A    between atoms: _187  and  _188
REMARK   79  A    between atoms: _191  and  _193
REMARK   80  A    between atoms: _193  and  _194
REMARK   81  A    between atoms: _193  and  _196
REMARK   82  A    between atoms: _196  and  _197
REMARK   83  A    between atoms: _201  and  _202
REMARK   84  A    between atoms: _207  and  _209
REMARK   85  A    between atoms: _209  and  _210
REMARK   86  A    between atoms: _209  and  _212
REMARK   87  A    between atoms: _215  and  _217
REMARK   88  A    between atoms: _217  and  _218
REMARK   89  A    between atoms: _217  and  _220
REMARK   90  A    between atoms: _220  and  _221
REMARK   91  A    between atoms: _226  and  _228
REMARK   92  A    between atoms: _228  and  _229
REMARK   93  A    between atoms: _228  and  _231
REMARK   94  A    between atoms: _234  and  _236
REMARK   95  A    between atoms: _236  and  _237
REMARK   96  A    between atoms: _239  and  _241
REMARK   97  A    between atoms: _241  and  _242
REMARK   98  A    between atoms: _241  and  _244
REMARK   99  A    between atoms: _244  and  _245
REMARK  100  A    between atoms: _245  and  _246
REMARK  101  A    between atoms: _246  and  _247
REMARK  102  A    between atoms: _256  and  _258
REMARK  103  A    between atoms: _258  and  _259
REMARK  104  A    between atoms: _258  and  _261
REMARK  105  A    between atoms: _261  and  _262
REMARK  106  A    between atoms: _265  and  _267
REMARK  107  A    between atoms: _267  and  _268
REMARK  108  A    between atoms: _267  and  _270
REMARK  109  A    between atoms: _270  and  _271
REMARK  110  A    between atoms: _271  and  _272
REMARK  111  A    between atoms: _272  and  _273
REMARK  112  A    between atoms: _282  and  _284
REMARK  113  A    between atoms: _284  and  _285
REMARK  114  A    between atoms: _284  and  _287
REMARK  115  A    between atoms: _287  and  _288
REMARK  116  A    between atoms: _294  and  _296
REMARK  117  A    between atoms: _296  and  _297
REMARK  118  A    between atoms: _296  and  _299
REMARK  119  A    between atoms: _299  and  _300
REMARK  120  A    between atoms: _303  and  _305
REMARK  121  A    between atoms: _305  and  _306
REMARK  122  A    between atoms: _305  and  _308
REMARK  123  A    between atoms: _308  and  _309
REMARK  124  A    between atoms: _312  and  _314
REMARK  125  A    between atoms: _314  and  _315
REMARK  126  A    between atoms: _314  and  _317
REMARK  127  A    between atoms: _317  and  _318
REMARK  128  A    between atoms: _321  and  _323
REMARK  129  A    between atoms: _323  and  _324
REMARK  130  A    between atoms: _323  and  _326
REMARK  131  A    between atoms: _326  and  _327
REMARK  132  A    between atoms: _330  and  _332
REMARK  133  A    between atoms: _332  and  _333
REMARK  134  A    between atoms: _335  and  _337
REMARK  135  A    between atoms: _337  and  _338
REMARK  136  A    between atoms: _341  and  _343
REMARK  137  A    between atoms: _343  and  _344
REMARK  138  A    between atoms: _343  and  _346
REMARK  139  A    between atoms: _346  and  _347
REMARK  140  A    between atoms: _350  and  _352
REMARK  141  A    between atoms: _352  and  _353
REMARK  142  A    between atoms: _352  and  _355
REMARK  143  A    between atoms: _355  and  _356
REMARK  144  A    between atoms: _361  and  _363
REMARK  145  A    between atoms: _363  and  _364
REMARK  146  A    between atoms: _363  and  _366
REMARK  147  A    between atoms: _366  and  _367
REMARK  148  A    between atoms: _370  and  _372
REMARK  149  A    between atoms: _372  and  _373
REMARK  150  A    between atoms: _372  and  _375
REMARK  151  A    between atoms: _375  and  _376
REMARK  152  A    between atoms: _379  and  _381
REMARK  153  A    between atoms: _381  and  _382
REMARK  154  A    between atoms: _381  and  _384
REMARK  155  A    between atoms: _384  and  _385
REMARK  156  A    between atoms: _385  and  _386
REMARK  157  A    between atoms: _388  and  _390
REMARK  158  A    between atoms: _390  and  _391
REMARK  159  A    between atoms: _390  and  _393
REMARK  160  A    between atoms: _396  and  _398
REMARK  161  A    between atoms: _398  and  _399
REMARK  162  A    between atoms: _401  and  _403
REMARK  163  A    between atoms: _403  and  _404
REMARK  164  A    between atoms: _406  and  _408
REMARK  165  A    between atoms: _408  and  _409
REMARK  166  A    between atoms: _408  and  _411
REMARK  167  A    between atoms: _411  and  _412
REMARK  168  A    between atoms: _415  and  _417
REMARK  169  A    between atoms: _417  and  _418
REMARK  170  A    between atoms: _420  and  _422
REMARK  171  A    between atoms: _422  and  _423
REMARK  172  A    between atoms: _425  and  _427
REMARK  173  A    between atoms: _427  and  _428
REMARK  174  A    between atoms: _427  and  _430
REMARK  175  A    between atoms: _430  and  _431
REMARK  176  A    between atoms: _437  and  _439
REMARK  177  A    between atoms: _439  and  _440
REMARK  178  A    between atoms: _439  and  _442
REMARK  179  A    between atoms: _442  and  _443
REMARK  180  A    between atoms: _446  and  _448
REMARK  181  A    between atoms: _448  and  _449
REMARK  182  A    between atoms: _448  and  _451
REMARK  183  A    between atoms: _454  and  _456
REMARK  184  A    between atoms: _456  and  _457
REMARK  185  A    between atoms: _456  and  _459
REMARK  186  A    between atoms: _459  and  _460
REMARK  187  A    between atoms: _463  and  _465
REMARK  188  A    between atoms: _465  and  _466
REMARK  189  A    between atoms: _465  and  _468
REMARK  190  A    between atoms: _468  and  _469
REMARK  191  A    between atoms: _473  and  _474
REMARK  192  A    between atoms: _479  and  _481
REMARK  193  A    between atoms: _481  and  _482
REMARK  194  A    between atoms: _481  and  _484
REMARK  195  A    between atoms: _487  and  _489
REMARK  196  A    between atoms: _489  and  _490
REMARK  197  A    between atoms: _489  and  _492
REMARK  198  A    between atoms: _492  and  _493
REMARK  199  A    between atoms: _498  and  _500
REMARK  200  A    between atoms: _500  and  _501
REMARK  201  A    between atoms: _500  and  _503
REMARK  202  A    between atoms: _506  and  _508
REMARK  203  A    between atoms: _508  and  _509
REMARK  204  A    between atoms: _508  and  _511
REMARK  205  A    between atoms: _511  and  _512
REMARK  206  A    between atoms: _515  and  _517
REMARK  207  A    between atoms: _517  and  _518
REMARK  208  A    between atoms: _520  and  _522
REMARK  209  A    between atoms: _522  and  _523
REMARK  210  A    between atoms: _522  and  _525
REMARK  211  A    between atoms: _525  and  _526
REMARK  212  A    between atoms: _526  and  _527
REMARK  213  A    between atoms: _527  and  _528
REMARK  214  A    between atoms: _537  and  _539
REMARK  215  A    between atoms: _539  and  _540
REMARK  216  A    between atoms: _539  and  _542
REMARK  217  A    between atoms: _542  and  _543
REMARK                            x       y       z     vdW  Elec       q    Type
REMARK                         _______ _______ _______ _____ _____    ______ ____
ROOT
ATOM      1  O   HOH     1     -10.375  -5.568   4.237  0.00  0.00    +0.000 OA
ENDROOT
TORSDOF 0
REMARK  Name = ../refined-set-2016/4yhq/4yhq_pocket.pdb
REMARK  217 active torsions:
REMARK  status: ('A' for Active; 'I' for Inactive)
REMARK    1  A    between atoms: _1  and  _3
REMARK    2  A    between atoms: _3  and  _4
REMARK    3  A    between atoms: _3  and  _6
REMARK    4  A    between atoms: _6  and  _7
REMARK    5  A    between atoms: _7  and  _8
REMARK    6  A    between atoms: _8  and  _9
REMARK    7  A    between atoms: _18  and  _20
REMARK    8  A    between atoms: _20  and  _21
REMARK    9  A    between atoms: _20  and  _23
REMARK   10  A    between atoms: _23  and  _24
REMARK   11  A    between atoms: _30  and  _32
REMARK   12  A    between atoms: _32  and  _33
REMARK   13  A    between atoms: _32  and  _35
REMARK   14  A    between atoms: _35  and  _36
REMARK   15  A    between atoms: _39  and  _41
REMARK   16  A    between atoms: _41  and  _42
REMARK   17  A    between atoms: _41  and  _44
REMARK   18  A    between atoms: _44  and  _45
REMARK   19  A    between atoms: _48  and  _50
REMARK   20  A    between atoms: _50  and  _51
REMARK   21  A    between atoms: _50  and  _53
REMARK   22  A    between atoms: _53  and  _54
REMARK   23  A    between atoms: _57  and  _59
REMARK   24  A    between atoms: _59  and  _60
REMARK   25  A    between atoms: _59  and  _62
REMARK   26  A    between atoms: _62  and  _63
REMARK   27  A    between atoms: _66  and  _68
REMARK   28  A    between atoms: _68  and  _69
REMARK   29  A    between atoms: _71  and  _73
REMARK   30  A    between atoms: _73  and  _74
REMARK   31  A    between atoms: _77  and  _79
REMARK   32  A    between atoms: _79  and  _80
REMARK   33  A    between atoms: _79  and  _82
REMARK   34  A    between atoms: _82  and  _83
REMARK   35  A    between atoms: _86  and  _88
REMARK   36  A    between atoms: _88  and  _89
REMARK   37  A    between atoms: _88  and  _91
REMARK   38  A    between atoms: _91  and  _92
REMARK   39  A    between atoms: _97  and  _99
REMARK   40  A    between atoms: _99  and  _100
REMARK   41  A    between atoms: _99  and  _102
REMARK   42  A    between atoms: _102  and  _103
REMARK   43  A    between atoms: _106  and  _108
REMARK   44  A    between atoms: _108  and  _109
REMARK   45  A    between atoms: _108  and  _111
REMARK   46  A    between atoms: _111  and  _112
REMARK   47  A    between atoms: _115  and  _117
REMARK   48  A    between atoms: _117  and  _118
REMARK   49  A    between atoms: _117  and  _120
REMARK   50  A    between atoms: _120  and  _121
REMARK   51  A    between atoms: _121  and  _122
REMARK   52  A    between atoms: _124  and  _126
REMARK   53  A    between atoms: _126  and  _127
REMARK   54  A    between atoms: _126  and  _129
REMARK   55  A    between atoms: _132  and  _134
REMARK   56  A    between atoms: _134  and  _135
REMARK   57  A    between atoms: _137  and  _139
REMARK   58  A    between atoms: _139  and  _140
REMARK   59  A    between atoms: _142  and  _144
REMARK   60  A    between atoms: _144  and  _145
REMARK   61  A    between atoms: _144  and  _147
REMARK   62  A    between atoms: _147  and  _148
REMARK   63  A    between atoms: _151  and  _153
REMARK   64  A    between atoms: _153  and  _154
REMARK   65  A    between atoms: _156  and  _158
REMARK   66  A    between atoms: _158  and  _159
REMARK   67  A    between atoms: _161  and  _163
REMARK   68  A    between atoms: _163  and  _164
REMARK   69  A    between atoms: _163  and  _166
REMARK   70  A    between atoms: _166  and  _167
REMARK   71  A    between atoms: _173  and  _175
REMARK   72  A    between atoms: _175  and  _176
REMARK   73  A    between atoms: _175  and  _178
REMARK   74  A    between atoms: _178  and  _179
REMARK   75  A    between atoms: _182  and  _184
REMARK   76  A    between atoms: _184  and  _185
REMARK   77  A    between atoms: _184  and  _187
REMARK   78  A    between atoms: _187  and  _188
REMARK   79  A    between atoms: _191  and  _193
REMARK   80  A    between atoms: _193  and  _194
REMARK   81  A    between atoms: _193  and  _196
REMARK   82  A    between atoms: _196  and  _197
REMARK   83  A    between atoms: _201  and  _202
REMARK   84  A    between atoms: _207  and  _209
REMARK   85  A    between atoms: _209  and  _210
REMARK   86  A    between atoms: _209  and  _212
REMARK   87  A    between atoms: _215  and  _217
REMARK   88  A    between atoms: _217  and  _218
REMARK   89  A    between atoms: _217  and  _220
REMARK   90  A    between atoms: _220  and  _221
REMARK   91  A    between atoms: _226  and  _228
REMARK   92  A    between atoms: _228  and  _229
REMARK   93  A    between atoms: _228  and  _231
REMARK   94  A    between atoms: _234  and  _236
REMARK   95  A    between atoms: _236  and  _237
REMARK   96  A    between atoms: _239  and  _241
REMARK   97  A    between atoms: _241  and  _242
REMARK   98  A    between atoms: _241  and  _244
REMARK   99  A    between atoms: _244  and  _245
REMARK  100  A    between atoms: _245  and  _246
REMARK  101  A    between atoms: _246  and  _247
REMARK  102  A    between atoms: _256  and  _258
REMARK  103  A    between atoms: _258  and  _259
REMARK  104  A    between atoms: _258  and  _261
REMARK  105  A    between atoms: _261  and  _262
REMARK  106  A    between atoms: _265  and  _267
REMARK  107  A    between atoms: _267  and  _268
REMARK  108  A    between atoms: _267  and  _270
REMARK  109  A    between atoms: _270  and  _271
REMARK  110  A    between atoms: _271  and  _272
REMARK  111  A    between atoms: _272  and  _273
REMARK  112  A    between atoms: _282  and  _284
REMARK  113  A    between atoms: _284  and  _285
REMARK  114  A    between atoms: _284  and  _287
REMARK  115  A    between atoms: _287  and  _288
REMARK  116  A    between atoms: _294  and  _296
REMARK  117  A    between atoms: _296  and  _297
REMARK  118  A    between atoms: _296  and  _299
REMARK  119  A    between atoms: _299  and  _300
REMARK  120  A    between atoms: _303  and  _305
REMARK  121  A    between atoms: _305  and  _306
REMARK  122  A    between atoms: _305  and  _308
REMARK  123  A    between atoms: _308  and  _309
REMARK  124  A    between atoms: _312  and  _314
REMARK  125  A    between atoms: _314  and  _315
REMARK  126  A    between atoms: _314  and  _317
REMARK  127  A    between atoms: _317  and  _318
REMARK  128  A    between atoms: _321  and  _323
REMARK  129  A    between atoms: _323  and  _324
REMARK  130  A    between atoms: _323  and  _326
REMARK  131  A    between atoms: _326  and  _327
REMARK  132  A    between atoms: _330  and  _332
REMARK  133  A    between atoms: _332  and  _333
REMARK  134  A    between atoms: _335  and  _337
REMARK  135  A    between atoms: _337  and  _338
REMARK  136  A    between atoms: _341  and  _343
REMARK  137  A    between atoms: _343  and  _344
REMARK  138  A    between atoms: _343  and  _346
REMARK  139  A    between atoms: _346  and  _347
REMARK  140  A    between atoms: _350  and  _352
REMARK  141  A    between atoms: _352  and  _353
REMARK  142  A    between atoms: _352  and  _355
REMARK  143  A    between atoms: _355  and  _356
REMARK  144  A    between atoms: _361  and  _363
REMARK  145  A    between atoms: _363  and  _364
REMARK  146  A    between atoms: _363  and  _366
REMARK  147  A    between atoms: _366  and  _367
REMARK  148  A    between atoms: _370  and  _372
REMARK  149  A    between atoms: _372  and  _373
REMARK  150  A    between atoms: _372  and  _375
REMARK  151  A    between atoms: _375  and  _376
REMARK  152  A    between atoms: _379  and  _381
REMARK  153  A    between atoms: _381  and  _382
REMARK  154  A    between atoms: _381  and  _384
REMARK  155  A    between atoms: _384  and  _385
REMARK  156  A    between atoms: _385  and  _386
REMARK  157  A    between atoms: _388  and  _390
REMARK  158  A    between atoms: _390  and  _391
REMARK  159  A    between atoms: _390  and  _393
REMARK  160  A    between atoms: _396  and  _398
REMARK  161  A    between atoms: _398  and  _399
REMARK  162  A    between atoms: _401  and  _403
REMARK  163  A    between atoms: _403  and  _404
REMARK  164  A    between atoms: _406  and  _408
REMARK  165  A    between atoms: _408  and  _409
REMARK  166  A    between atoms: _408  and  _411
REMARK  167  A    between atoms: _411  and  _412
REMARK  168  A    between atoms: _415  and  _417
REMARK  169  A    between atoms: _417  and  _418
REMARK  170  A    between atoms: _420  and  _422
REMARK  171  A    between atoms: _422  and  _423
REMARK  172  A    between atoms: _425  and  _427
REMARK  173  A    between atoms: _427  and  _428
REMARK  174  A    between atoms: _427  and  _430
REMARK  175  A    between atoms: _430  and  _431
REMARK  176  A    between atoms: _437  and  _439
REMARK  177  A    between atoms: _439  and  _440
REMARK  178  A    between atoms: _439  and  _442
REMARK  179  A    between atoms: _442  and  _443
REMARK  180  A    between atoms: _446  and  _448
REMARK  181  A    between atoms: _448  and  _449
REMARK  182  A    between atoms: _448  and  _451
REMARK  183  A    between atoms: _454  and  _456
REMARK  184  A    between atoms: _456  and  _457
REMARK  185  A    between atoms: _456  and  _459
REMARK  186  A    between atoms: _459  and  _460
REMARK  187  A    between atoms: _463  and  _465
REMARK  188  A    between atoms: _465  and  _466
REMARK  189  A    between atoms: _465  and  _468
REMARK  190  A    between atoms: _468  and  _469
REMARK  191  A    between atoms: _473  and  _474
REMARK  192  A    between atoms: _479  and  _481
REMARK  193  A    between atoms: _481  and  _482
REMARK  194  A    between atoms: _481  and  _484
REMARK  195  A    between atoms: _487  and  _489
REMARK  196  A    between atoms: _489  and  _490
REMARK  197  A    between atoms: _489  and  _492
REMARK  198  A    between atoms: _492  and  _493
REMARK  199  A    between atoms: _498  and  _500
REMARK  200  A    between atoms: _500  and  _501
REMARK  201  A    between atoms: _500  and  _503
REMARK  202  A    between atoms: _506  and  _508
REMARK  203  A    between atoms: _508  and  _509
REMARK  204  A    between atoms: _508  and  _511
REMARK  205  A    between atoms: _511  and  _512
REMARK  206  A    between atoms: _515  and  _517
REMARK  207  A    between atoms: _517  and  _518
REMARK  208  A    between atoms: _520  and  _522
REMARK  209  A    between atoms: _522  and  _523
REMARK  210  A    between atoms: _522  and  _525
REMARK  211  A    between atoms: _525  and  _526
REMARK  212  A    between atoms: _526  and  _527
REMARK  213  A    between atoms: _527  and  _528
REMARK  214  A    between atoms: _537  and  _539
REMARK  215  A    between atoms: _539  and  _540
REMARK  216  A    between atoms: _539  and  _542
REMARK  217  A    between atoms: _542  and  _543
REMARK                            x       y       z     vdW  Elec       q    Type
REMARK                         _______ _______ _______ _____ _____    ______ ____
ROOT
ATOM      1  O   HOH     1     -17.034  -1.914  16.130  0.00  0.00    +0.000 OA
ENDROOT
TORSDOF 0
REMARK  Name = ../refined-set-2016/4yhq/4yhq_pocket.pdb
REMARK  217 active torsions:
REMARK  status: ('A' for Active; 'I' for Inactive)
REMARK    1  A    between atoms: _1  and  _3
REMARK    2  A    between atoms: _3  and  _4
REMARK    3  A    between atoms: _3  and  _6
REMARK    4  A    between atoms: _6  and  _7
REMARK    5  A    between atoms: _7  and  _8
REMARK    6  A    between atoms: _8  and  _9
REMARK    7  A    between atoms: _18  and  _20
REMARK    8  A    between atoms: _20  and  _21
REMARK    9  A    between atoms: _20  and  _23
REMARK   10  A    between atoms: _23  and  _24
REMARK   11  A    between atoms: _30  and  _32
REMARK   12  A    between atoms: _32  and  _33
REMARK   13  A    between atoms: _32  and  _35
REMARK   14  A    between atoms: _35  and  _36
REMARK   15  A    between atoms: _39  and  _41
REMARK   16  A    between atoms: _41  and  _42
REMARK   17  A    between atoms: _41  and  _44
REMARK   18  A    between atoms: _44  and  _45
REMARK   19  A    between atoms: _48  and  _50
REMARK   20  A    between atoms: _50  and  _51
REMARK   21  A    between atoms: _50  and  _53
REMARK   22  A    between atoms: _53  and  _54
REMARK   23  A    between atoms: _57  and  _59
REMARK   24  A    between atoms: _59  and  _60
REMARK   25  A    between atoms: _59  and  _62
REMARK   26  A    between atoms: _62  and  _63
REMARK   27  A    between atoms: _66  and  _68
REMARK   28  A    between atoms: _68  and  _69
REMARK   29  A    between atoms: _71  and  _73
REMARK   30  A    between atoms: _73  and  _74
REMARK   31  A    between atoms: _77  and  _79
REMARK   32  A    between atoms: _79  and  _80
REMARK   33  A    between atoms: _79  and  _82
REMARK   34  A    between atoms: _82  and  _83
REMARK   35  A    between atoms: _86  and  _88
REMARK   36  A    between atoms: _88  and  _89
REMARK   37  A    between atoms: _88  and  _91
REMARK   38  A    between atoms: _91  and  _92
REMARK   39  A    between atoms: _97  and  _99
REMARK   40  A    between atoms: _99  and  _100
REMARK   41  A    between atoms: _99  and  _102
REMARK   42  A    between atoms: _102  and  _103
REMARK   43  A    between atoms: _106  and  _108
REMARK   44  A    between atoms: _108  and  _109
REMARK   45  A    between atoms: _108  and  _111
REMARK   46  A    between atoms: _111  and  _112
REMARK   47  A    between atoms: _115  and  _117
REMARK   48  A    between atoms: _117  and  _118
REMARK   49  A    between atoms: _117  and  _120
REMARK   50  A    between atoms: _120  and  _121
REMARK   51  A    between atoms: _121  and  _122
REMARK   52  A    between atoms: _124  and  _126
REMARK   53  A    between atoms: _126  and  _127
REMARK   54  A    between atoms: _126  and  _129
REMARK   55  A    between atoms: _132  and  _134
REMARK   56  A    between atoms: _134  and  _135
REMARK   57  A    between atoms: _137  and  _139
REMARK   58  A    between atoms: _139  and  _140
REMARK   59  A    between atoms: _142  and  _144
REMARK   60  A    between atoms: _144  and  _145
REMARK   61  A    between atoms: _144  and  _147
REMARK   62  A    between atoms: _147  and  _148
REMARK   63  A    between atoms: _151  and  _153
REMARK   64  A    between atoms: _153  and  _154
REMARK   65  A    between atoms: _156  and  _158
REMARK   66  A    between atoms: _158  and  _159
REMARK   67  A    between atoms: _161  and  _163
REMARK   68  A    between atoms: _163  and  _164
REMARK   69  A    between atoms: _163  and  _166
REMARK   70  A    between atoms: _166  and  _167
REMARK   71  A    between atoms: _173  and  _175
REMARK   72  A    between atoms: _175  and  _176
REMARK   73  A    between atoms: _175  and  _178
REMARK   74  A    between atoms: _178  and  _179
REMARK   75  A    between atoms: _182  and  _184
REMARK   76  A    between atoms: _184  and  _185
REMARK   77  A    between atoms: _184  and  _187
REMARK   78  A    between atoms: _187  and  _188
REMARK   79  A    between atoms: _191  and  _193
REMARK   80  A    between atoms: _193  and  _194
REMARK   81  A    between atoms: _193  and  _196
REMARK   82  A    between atoms: _196  and  _197
REMARK   83  A    between atoms: _201  and  _202
REMARK   84  A    between atoms: _207  and  _209
REMARK   85  A    between atoms: _209  and  _210
REMARK   86  A    between atoms: _209  and  _212
REMARK   87  A    between atoms: _215  and  _217
REMARK   88  A    between atoms: _217  and  _218
REMARK   89  A    between atoms: _217  and  _220
REMARK   90  A    between atoms: _220  and  _221
REMARK   91  A    between atoms: _226  and  _228
REMARK   92  A    between atoms: _228  and  _229
REMARK   93  A    between atoms: _228  and  _231
REMARK   94  A    between atoms: _234  and  _236
REMARK   95  A    between atoms: _236  and  _237
REMARK   96  A    between atoms: _239  and  _241
REMARK   97  A    between atoms: _241  and  _242
REMARK   98  A    between atoms: _241  and  _244
REMARK   99  A    between atoms: _244  and  _245
REMARK  100  A    between atoms: _245  and  _246
REMARK  101  A    between atoms: _246  and  _247
REMARK  102  A    between atoms: _256  and  _258
REMARK  103  A    between atoms: _258  and  _259
REMARK  104  A    between atoms: _258  and  _261
REMARK  105  A    between atoms: _261  and  _262
REMARK  106  A    between atoms: _265  and  _267
REMARK  107  A    between atoms: _267  and  _268
REMARK  108  A    between atoms: _267  and  _270
REMARK  109  A    between atoms: _270  and  _271
REMARK  110  A    between atoms: _271  and  _272
REMARK  111  A    between atoms: _272  and  _273
REMARK  112  A    between atoms: _282  and  _284
REMARK  113  A    between atoms: _284  and  _285
REMARK  114  A    between atoms: _284  and  _287
REMARK  115  A    between atoms: _287  and  _288
REMARK  116  A    between atoms: _294  and  _296
REMARK  117  A    between atoms: _296  and  _297
REMARK  118  A    between atoms: _296  and  _299
REMARK  119  A    between atoms: _299  and  _300
REMARK  120  A    between atoms: _303  and  _305
REMARK  121  A    between atoms: _305  and  _306
REMARK  122  A    between atoms: _305  and  _308
REMARK  123  A    between atoms: _308  and  _309
REMARK  124  A    between atoms: _312  and  _314
REMARK  125  A    between atoms: _314  and  _315
REMARK  126  A    between atoms: _314  and  _317
REMARK  127  A    between atoms: _317  and  _318
REMARK  128  A    between atoms: _321  and  _323
REMARK  129  A    between atoms: _323  and  _324
REMARK  130  A    between atoms: _323  and  _326
REMARK  131  A    between atoms: _326  and  _327
REMARK  132  A    between atoms: _330  and  _332
REMARK  133  A    between atoms: _332  and  _333
REMARK  134  A    between atoms: _335  and  _337
REMARK  135  A    between atoms: _337  and  _338
REMARK  136  A    between atoms: _341  and  _343
REMARK  137  A    between atoms: _343  and  _344
REMARK  138  A    between atoms: _343  and  _346
REMARK  139  A    between atoms: _346  and  _347
REMARK  140  A    between atoms: _350  and  _352
REMARK  141  A    between atoms: _352  and  _353
REMARK  142  A    between atoms: _352  and  _355
REMARK  143  A    between atoms: _355  and  _356
REMARK  144  A    between atoms: _361  and  _363
REMARK  145  A    between atoms: _363  and  _364
REMARK  146  A    between atoms: _363  and  _366
REMARK  147  A    between atoms: _366  and  _367
REMARK  148  A    between atoms: _370  and  _372
REMARK  149  A    between atoms: _372  and  _373
REMARK  150  A    between atoms: _372  and  _375
REMARK  151  A    between atoms: _375  and  _376
REMARK  152  A    between atoms: _379  and  _381
REMARK  153  A    between atoms: _381  and  _382
REMARK  154  A    between atoms: _381  and  _384
REMARK  155  A    between atoms: _384  and  _385
REMARK  156  A    between atoms: _385  and  _386
REMARK  157  A    between atoms: _388  and  _390
REMARK  158  A    between atoms: _390  and  _391
REMARK  159  A    between atoms: _390  and  _393
REMARK  160  A    between atoms: _396  and  _398
REMARK  161  A    between atoms: _398  and  _399
REMARK  162  A    between atoms: _401  and  _403
REMARK  163  A    between atoms: _403  and  _404
REMARK  164  A    between atoms: _406  and  _408
REMARK  165  A    between atoms: _408  and  _409
REMARK  166  A    between atoms: _408  and  _411
REMARK  167  A    between atoms: _411  and  _412
REMARK  168  A    between atoms: _415  and  _417
REMARK  169  A    between atoms: _417  and  _418
REMARK  170  A    between atoms: _420  and  _422
REMARK  171  A    between atoms: _422  and  _423
REMARK  172  A    between atoms: _425  and  _427
REMARK  173  A    between atoms: _427  and  _428
REMARK  174  A    between atoms: _427  and  _430
REMARK  175  A    between atoms: _430  and  _431
REMARK  176  A    between atoms: _437  and  _439
REMARK  177  A    between atoms: _439  and  _440
REMARK  178  A    between atoms: _439  and  _442
REMARK  179  A    between atoms: _442  and  _443
REMARK  180  A    between atoms: _446  and  _448
REMARK  181  A    between atoms: _448  and  _449
REMARK  182  A    between atoms: _448  and  _451
REMARK  183  A    between atoms: _454  and  _456
REMARK  184  A    between atoms: _456  and  _457
REMARK  185  A    between atoms: _456  and  _459
REMARK  186  A    between atoms: _459  and  _460
REMARK  187  A    between atoms: _463  and  _465
REMARK  188  A    between atoms: _465  and  _466
REMARK  189  A    between atoms: _465  and  _468
REMARK  190  A    between atoms: _468  and  _469
REMARK  191  A    between atoms: _473  and  _474
REMARK  192  A    between atoms: _479  and  _481
REMARK  193  A    between atoms: _481  and  _482
REMARK  194  A    between atoms: _481  and  _484
REMARK  195  A    between atoms: _487  and  _489
REMARK  196  A    between atoms: _489  and  _490
REMARK  197  A    between atoms: _489  and  _492
REMARK  198  A    between atoms: _492  and  _493
REMARK  199  A    between atoms: _498  and  _500
REMARK  200  A    between atoms: _500  and  _501
REMARK  201  A    between atoms: _500  and  _503
REMARK  202  A    between atoms: _506  and  _508
REMARK  203  A    between atoms: _508  and  _509
REMARK  204  A    between atoms: _508  and  _511
REMARK  205  A    between atoms: _511  and  _512
REMARK  206  A    between atoms: _515  and  _517
REMARK  207  A    between atoms: _517  and  _518
REMARK  208  A    between atoms: _520  and  _522
REMARK  209  A    between atoms: _522  and  _523
REMARK  210  A    between atoms: _522  and  _525
REMARK  211  A    between atoms: _525  and  _526
REMARK  212  A    between atoms: _526  and  _527
REMARK  213  A    between atoms: _527  and  _528
REMARK  214  A    between atoms: _537  and  _539
REMARK  215  A    between atoms: _539  and  _540
REMARK  216  A    between atoms: _539  and  _542
REMARK  217  A    between atoms: _542  and  _543
REMARK                            x       y       z     vdW  Elec       q    Type
REMARK                         _______ _______ _______ _____ _____    ______ ____
ROOT
ATOM      1  O   HOH     1     -12.338  -6.390   5.232  0.00  0.00    +0.000 OA
ENDROOT
TORSDOF 0
REMARK  Name = ../refined-set-2016/4yhq/4yhq_pocket.pdb
REMARK  217 active torsions:
REMARK  status: ('A' for Active; 'I' for Inactive)
REMARK    1  A    between atoms: _1  and  _3
REMARK    2  A    between atoms: _3  and  _4
REMARK    3  A    between atoms: _3  and  _6
REMARK    4  A    between atoms: _6  and  _7
REMARK    5  A    between atoms: _7  and  _8
REMARK    6  A    between atoms: _8  and  _9
REMARK    7  A    between atoms: _18  and  _20
REMARK    8  A    between atoms: _20  and  _21
REMARK    9  A    between atoms: _20  and  _23
REMARK   10  A    between atoms: _23  and  _24
REMARK   11  A    between atoms: _30  and  _32
REMARK   12  A    between atoms: _32  and  _33
REMARK   13  A    between atoms: _32  and  _35
REMARK   14  A    between atoms: _35  and  _36
REMARK   15  A    between atoms: _39  and  _41
REMARK   16  A    between atoms: _41  and  _42
REMARK   17  A    between atoms: _41  and  _44
REMARK   18  A    between atoms: _44  and  _45
REMARK   19  A    between atoms: _48  and  _50
REMARK   20  A    between atoms: _50  and  _51
REMARK   21  A    between atoms: _50  and  _53
REMARK   22  A    between atoms: _53  and  _54
REMARK   23  A    between atoms: _57  and  _59
REMARK   24  A    between atoms: _59  and  _60
REMARK   25  A    between atoms: _59  and  _62
REMARK   26  A    between atoms: _62  and  _63
REMARK   27  A    between atoms: _66  and  _68
REMARK   28  A    between atoms: _68  and  _69
REMARK   29  A    between atoms: _71  and  _73
REMARK   30  A    between atoms: _73  and  _74
REMARK   31  A    between atoms: _77  and  _79
REMARK   32  A    between atoms: _79  and  _80
REMARK   33  A    between atoms: _79  and  _82
REMARK   34  A    between atoms: _82  and  _83
REMARK   35  A    between atoms: _86  and  _88
REMARK   36  A    between atoms: _88  and  _89
REMARK   37  A    between atoms: _88  and  _91
REMARK   38  A    between atoms: _91  and  _92
REMARK   39  A    between atoms: _97  and  _99
REMARK   40  A    between atoms: _99  and  _100
REMARK   41  A    between atoms: _99  and  _102
REMARK   42  A    between atoms: _102  and  _103
REMARK   43  A    between atoms: _106  and  _108
REMARK   44  A    between atoms: _108  and  _109
REMARK   45  A    between atoms: _108  and  _111
REMARK   46  A    between atoms: _111  and  _112
REMARK   47  A    between atoms: _115  and  _117
REMARK   48  A    between atoms: _117  and  _118
REMARK   49  A    between atoms: _117  and  _120
REMARK   50  A    between atoms: _120  and  _121
REMARK   51  A    between atoms: _121  and  _122
REMARK   52  A    between atoms: _124  and  _126
REMARK   53  A    between atoms: _126  and  _127
REMARK   54  A    between atoms: _126  and  _129
REMARK   55  A    between atoms: _132  and  _134
REMARK   56  A    between atoms: _134  and  _135
REMARK   57  A    between atoms: _137  and  _139
REMARK   58  A    between atoms: _139  and  _140
REMARK   59  A    between atoms: _142  and  _144
REMARK   60  A    between atoms: _144  and  _145
REMARK   61  A    between atoms: _144  and  _147
REMARK   62  A    between atoms: _147  and  _148
REMARK   63  A    between atoms: _151  and  _153
REMARK   64  A    between atoms: _153  and  _154
REMARK   65  A    between atoms: _156  and  _158
REMARK   66  A    between atoms: _158  and  _159
REMARK   67  A    between atoms: _161  and  _163
REMARK   68  A    between atoms: _163  and  _164
REMARK   69  A    between atoms: _163  and  _166
REMARK   70  A    between atoms: _166  and  _167
REMARK   71  A    between atoms: _173  and  _175
REMARK   72  A    between atoms: _175  and  _176
REMARK   73  A    between atoms: _175  and  _178
REMARK   74  A    between atoms: _178  and  _179
REMARK   75  A    between atoms: _182  and  _184
REMARK   76  A    between atoms: _184  and  _185
REMARK   77  A    between atoms: _184  and  _187
REMARK   78  A    between atoms: _187  and  _188
REMARK   79  A    between atoms: _191  and  _193
REMARK   80  A    between atoms: _193  and  _194
REMARK   81  A    between atoms: _193  and  _196
REMARK   82  A    between atoms: _196  and  _197
REMARK   83  A    between atoms: _201  and  _202
REMARK   84  A    between atoms: _207  and  _209
REMARK   85  A    between atoms: _209  and  _210
REMARK   86  A    between atoms: _209  and  _212
REMARK   87  A    between atoms: _215  and  _217
REMARK   88  A    between atoms: _217  and  _218
REMARK   89  A    between atoms: _217  and  _220
REMARK   90  A    between atoms: _220  and  _221
REMARK   91  A    between atoms: _226  and  _228
REMARK   92  A    between atoms: _228  and  _229
REMARK   93  A    between atoms: _228  and  _231
REMARK   94  A    between atoms: _234  and  _236
REMARK   95  A    between atoms: _236  and  _237
REMARK   96  A    between atoms: _239  and  _241
REMARK   97  A    between atoms: _241  and  _242
REMARK   98  A    between atoms: _241  and  _244
REMARK   99  A    between atoms: _244  and  _245
REMARK  100  A    between atoms: _245  and  _246
REMARK  101  A    between atoms: _246  and  _247
REMARK  102  A    between atoms: _256  and  _258
REMARK  103  A    between atoms: _258  and  _259
REMARK  104  A    between atoms: _258  and  _261
REMARK  105  A    between atoms: _261  and  _262
REMARK  106  A    between atoms: _265  and  _267
REMARK  107  A    between atoms: _267  and  _268
REMARK  108  A    between atoms: _267  and  _270
REMARK  109  A    between atoms: _270  and  _271
REMARK  110  A    between atoms: _271  and  _272
REMARK  111  A    between atoms: _272  and  _273
REMARK  112  A    between atoms: _282  and  _284
REMARK  113  A    between atoms: _284  and  _285
REMARK  114  A    between atoms: _284  and  _287
REMARK  115  A    between atoms: _287  and  _288
REMARK  116  A    between atoms: _294  and  _296
REMARK  117  A    between atoms: _296  and  _297
REMARK  118  A    between atoms: _296  and  _299
REMARK  119  A    between atoms: _299  and  _300
REMARK  120  A    between atoms: _303  and  _305
REMARK  121  A    between atoms: _305  and  _306
REMARK  122  A    between atoms: _305  and  _308
REMARK  123  A    between atoms: _308  and  _309
REMARK  124  A    between atoms: _312  and  _314
REMARK  125  A    between atoms: _314  and  _315
REMARK  126  A    between atoms: _314  and  _317
REMARK  127  A    between atoms: _317  and  _318
REMARK  128  A    between atoms: _321  and  _323
REMARK  129  A    between atoms: _323  and  _324
REMARK  130  A    between atoms: _323  and  _326
REMARK  131  A    between atoms: _326  and  _327
REMARK  132  A    between atoms: _330  and  _332
REMARK  133  A    between atoms: _332  and  _333
REMARK  134  A    between atoms: _335  and  _337
REMARK  135  A    between atoms: _337  and  _338
REMARK  136  A    between atoms: _341  and  _343
REMARK  137  A    between atoms: _343  and  _344
REMARK  138  A    between atoms: _343  and  _346
REMARK  139  A    between atoms: _346  and  _347
REMARK  140  A    between atoms: _350  and  _352
REMARK  141  A    between atoms: _352  and  _353
REMARK  142  A    between atoms: _352  and  _355
REMARK  143  A    between atoms: _355  and  _356
REMARK  144  A    between atoms: _361  and  _363
REMARK  145  A    between atoms: _363  and  _364
REMARK  146  A    between atoms: _363  and  _366
REMARK  147  A    between atoms: _366  and  _367
REMARK  148  A    between atoms: _370  and  _372
REMARK  149  A    between atoms: _372  and  _373
REMARK  150  A    between atoms: _372  and  _375
REMARK  151  A    between atoms: _375  and  _376
REMARK  152  A    between atoms: _379  and  _381
REMARK  153  A    between atoms: _381  and  _382
REMARK  154  A    between atoms: _381  and  _384
REMARK  155  A    between atoms: _384  and  _385
REMARK  156  A    between atoms: _385  and  _386
REMARK  157  A    between atoms: _388  and  _390
REMARK  158  A    between atoms: _390  and  _391
REMARK  159  A    between atoms: _390  and  _393
REMARK  160  A    between atoms: _396  and  _398
REMARK  161  A    between atoms: _398  and  _399
REMARK  162  A    between atoms: _401  and  _403
REMARK  163  A    between atoms: _403  and  _404
REMARK  164  A    between atoms: _406  and  _408
REMARK  165  A    between atoms: _408  and  _409
REMARK  166  A    between atoms: _408  and  _411
REMARK  167  A    between atoms: _411  and  _412
REMARK  168  A    between atoms: _415  and  _417
REMARK  169  A    between atoms: _417  and  _418
REMARK  170  A    between atoms: _420  and  _422
REMARK  171  A    between atoms: _422  and  _423
REMARK  172  A    between atoms: _425  and  _427
REMARK  173  A    between atoms: _427  and  _428
REMARK  174  A    between atoms: _427  and  _430
REMARK  175  A    between atoms: _430  and  _431
REMARK  176  A    between atoms: _437  and  _439
REMARK  177  A    between atoms: _439  and  _440
REMARK  178  A    between atoms: _439  and  _442
REMARK  179  A    between atoms: _442  and  _443
REMARK  180  A    between atoms: _446  and  _448
REMARK  181  A    between atoms: _448  and  _449
REMARK  182  A    between atoms: _448  and  _451
REMARK  183  A    between atoms: _454  and  _456
REMARK  184  A    between atoms: _456  and  _457
REMARK  185  A    between atoms: _456  and  _459
REMARK  186  A    between atoms: _459  and  _460
REMARK  187  A    between atoms: _463  and  _465
REMARK  188  A    between atoms: _465  and  _466
REMARK  189  A    between atoms: _465  and  _468
REMARK  190  A    between atoms: _468  and  _469
REMARK  191  A    between atoms: _473  and  _474
REMARK  192  A    between atoms: _479  and  _481
REMARK  193  A    between atoms: _481  and  _482
REMARK  194  A    between atoms: _481  and  _484
REMARK  195  A    between atoms: _487  and  _489
REMARK  196  A    between atoms: _489  and  _490
REMARK  197  A    between atoms: _489  and  _492
REMARK  198  A    between atoms: _492  and  _493
REMARK  199  A    between atoms: _498  and  _500
REMARK  200  A    between atoms: _500  and  _501
REMARK  201  A    between atoms: _500  and  _503
REMARK  202  A    between atoms: _506  and  _508
REMARK  203  A    between atoms: _508  and  _509
REMARK  204  A    between atoms: _508  and  _511
REMARK  205  A    between atoms: _511  and  _512
REMARK  206  A    between atoms: _515  and  _517
REMARK  207  A    between atoms: _517  and  _518
REMARK  208  A    between atoms: _520  and  _522
REMARK  209  A    between atoms: _522  and  _523
REMARK  210  A    between atoms: _522  and  _525
REMARK  211  A    between atoms: _525  and  _526
REMARK  212  A    between atoms: _526  and  _527
REMARK  213  A    between atoms: _527  and  _528
REMARK  214  A    between atoms: _537  and  _539
REMARK  215  A    between atoms: _539  and  _540
REMARK  216  A    between atoms: _539  and  _542
REMARK  217  A    between atoms: _542  and  _543
REMARK                            x       y       z     vdW  Elec       q    Type
REMARK                         _______ _______ _______ _____ _____    ______ ____
ROOT
ATOM      1  O   HOH     1     -23.630  -4.979   6.131  0.00  0.00    +0.000 OA
ENDROOT
TORSDOF 0
REMARK  Name = ../refined-set-2016/4yhq/4yhq_pocket.pdb
REMARK  217 active torsions:
REMARK  status: ('A' for Active; 'I' for Inactive)
REMARK    1  A    between atoms: _1  and  _3
REMARK    2  A    between atoms: _3  and  _4
REMARK    3  A    between atoms: _3  and  _6
REMARK    4  A    between atoms: _6  and  _7
REMARK    5  A    between atoms: _7  and  _8
REMARK    6  A    between atoms: _8  and  _9
REMARK    7  A    between atoms: _18  and  _20
REMARK    8  A    between atoms: _20  and  _21
REMARK    9  A    between atoms: _20  and  _23
REMARK   10  A    between atoms: _23  and  _24
REMARK   11  A    between atoms: _30  and  _32
REMARK   12  A    between atoms: _32  and  _33
REMARK   13  A    between atoms: _32  and  _35
REMARK   14  A    between atoms: _35  and  _36
REMARK   15  A    between atoms: _39  and  _41
REMARK   16  A    between atoms: _41  and  _42
REMARK   17  A    between atoms: _41  and  _44
REMARK   18  A    between atoms: _44  and  _45
REMARK   19  A    between atoms: _48  and  _50
REMARK   20  A    between atoms: _50  and  _51
REMARK   21  A    between atoms: _50  and  _53
REMARK   22  A    between atoms: _53  and  _54
REMARK   23  A    between atoms: _57  and  _59
REMARK   24  A    between atoms: _59  and  _60
REMARK   25  A    between atoms: _59  and  _62
REMARK   26  A    between atoms: _62  and  _63
REMARK   27  A    between atoms: _66  and  _68
REMARK   28  A    between atoms: _68  and  _69
REMARK   29  A    between atoms: _71  and  _73
REMARK   30  A    between atoms: _73  and  _74
REMARK   31  A    between atoms: _77  and  _79
REMARK   32  A    between atoms: _79  and  _80
REMARK   33  A    between atoms: _79  and  _82
REMARK   34  A    between atoms: _82  and  _83
REMARK   35  A    between atoms: _86  and  _88
REMARK   36  A    between atoms: _88  and  _89
REMARK   37  A    between atoms: _88  and  _91
REMARK   38  A    between atoms: _91  and  _92
REMARK   39  A    between atoms: _97  and  _99
REMARK   40  A    between atoms: _99  and  _100
REMARK   41  A    between atoms: _99  and  _102
REMARK   42  A    between atoms: _102  and  _103
REMARK   43  A    between atoms: _106  and  _108
REMARK   44  A    between atoms: _108  and  _109
REMARK   45  A    between atoms: _108  and  _111
REMARK   46  A    between atoms: _111  and  _112
REMARK   47  A    between atoms: _115  and  _117
REMARK   48  A    between atoms: _117  and  _118
REMARK   49  A    between atoms: _117  and  _120
REMARK   50  A    between atoms: _120  and  _121
REMARK   51  A    between atoms: _121  and  _122
REMARK   52  A    between atoms: _124  and  _126
REMARK   53  A    between atoms: _126  and  _127
REMARK   54  A    between atoms: _126  and  _129
REMARK   55  A    between atoms: _132  and  _134
REMARK   56  A    between atoms: _134  and  _135
REMARK   57  A    between atoms: _137  and  _139
REMARK   58  A    between atoms: _139  and  _140
REMARK   59  A    between atoms: _142  and  _144
REMARK   60  A    between atoms: _144  and  _145
REMARK   61  A    between atoms: _144  and  _147
REMARK   62  A    between atoms: _147  and  _148
REMARK   63  A    between atoms: _151  and  _153
REMARK   64  A    between atoms: _153  and  _154
REMARK   65  A    between atoms: _156  and  _158
REMARK   66  A    between atoms: _158  and  _159
REMARK   67  A    between atoms: _161  and  _163
REMARK   68  A    between atoms: _163  and  _164
REMARK   69  A    between atoms: _163  and  _166
REMARK   70  A    between atoms: _166  and  _167
REMARK   71  A    between atoms: _173  and  _175
REMARK   72  A    between atoms: _175  and  _176
REMARK   73  A    between atoms: _175  and  _178
REMARK   74  A    between atoms: _178  and  _179
REMARK   75  A    between atoms: _182  and  _184
REMARK   76  A    between atoms: _184  and  _185
REMARK   77  A    between atoms: _184  and  _187
REMARK   78  A    between atoms: _187  and  _188
REMARK   79  A    between atoms: _191  and  _193
REMARK   80  A    between atoms: _193  and  _194
REMARK   81  A    between atoms: _193  and  _196
REMARK   82  A    between atoms: _196  and  _197
REMARK   83  A    between atoms: _201  and  _202
REMARK   84  A    between atoms: _207  and  _209
REMARK   85  A    between atoms: _209  and  _210
REMARK   86  A    between atoms: _209  and  _212
REMARK   87  A    between atoms: _215  and  _217
REMARK   88  A    between atoms: _217  and  _218
REMARK   89  A    between atoms: _217  and  _220
REMARK   90  A    between atoms: _220  and  _221
REMARK   91  A    between atoms: _226  and  _228
REMARK   92  A    between atoms: _228  and  _229
REMARK   93  A    between atoms: _228  and  _231
REMARK   94  A    between atoms: _234  and  _236
REMARK   95  A    between atoms: _236  and  _237
REMARK   96  A    between atoms: _239  and  _241
REMARK   97  A    between atoms: _241  and  _242
REMARK   98  A    between atoms: _241  and  _244
REMARK   99  A    between atoms: _244  and  _245
REMARK  100  A    between atoms: _245  and  _246
REMARK  101  A    between atoms: _246  and  _247
REMARK  102  A    between atoms: _256  and  _258
REMARK  103  A    between atoms: _258  and  _259
REMARK  104  A    between atoms: _258  and  _261
REMARK  105  A    between atoms: _261  and  _262
REMARK  106  A    between atoms: _265  and  _267
REMARK  107  A    between atoms: _267  and  _268
REMARK  108  A    between atoms: _267  and  _270
REMARK  109  A    between atoms: _270  and  _271
REMARK  110  A    between atoms: _271  and  _272
REMARK  111  A    between atoms: _272  and  _273
REMARK  112  A    between atoms: _282  and  _284
REMARK  113  A    between atoms: _284  and  _285
REMARK  114  A    between atoms: _284  and  _287
REMARK  115  A    between atoms: _287  and  _288
REMARK  116  A    between atoms: _294  and  _296
REMARK  117  A    between atoms: _296  and  _297
REMARK  118  A    between atoms: _296  and  _299
REMARK  119  A    between atoms: _299  and  _300
REMARK  120  A    between atoms: _303  and  _305
REMARK  121  A    between atoms: _305  and  _306
REMARK  122  A    between atoms: _305  and  _308
REMARK  123  A    between atoms: _308  and  _309
REMARK  124  A    between atoms: _312  and  _314
REMARK  125  A    between atoms: _314  and  _315
REMARK  126  A    between atoms: _314  and  _317
REMARK  127  A    between atoms: _317  and  _318
REMARK  128  A    between atoms: _321  and  _323
REMARK  129  A    between atoms: _323  and  _324
REMARK  130  A    between atoms: _323  and  _326
REMARK  131  A    between atoms: _326  and  _327
REMARK  132  A    between atoms: _330  and  _332
REMARK  133  A    between atoms: _332  and  _333
REMARK  134  A    between atoms: _335  and  _337
REMARK  135  A    between atoms: _337  and  _338
REMARK  136  A    between atoms: _341  and  _343
REMARK  137  A    between atoms: _343  and  _344
REMARK  138  A    between atoms: _343  and  _346
REMARK  139  A    between atoms: _346  and  _347
REMARK  140  A    between atoms: _350  and  _352
REMARK  141  A    between atoms: _352  and  _353
REMARK  142  A    between atoms: _352  and  _355
REMARK  143  A    between atoms: _355  and  _356
REMARK  144  A    between atoms: _361  and  _363
REMARK  145  A    between atoms: _363  and  _364
REMARK  146  A    between atoms: _363  and  _366
REMARK  147  A    between atoms: _366  and  _367
REMARK  148  A    between atoms: _370  and  _372
REMARK  149  A    between atoms: _372  and  _373
REMARK  150  A    between atoms: _372  and  _375
REMARK  151  A    between atoms: _375  and  _376
REMARK  152  A    between atoms: _379  and  _381
REMARK  153  A    between atoms: _381  and  _382
REMARK  154  A    between atoms: _381  and  _384
REMARK  155  A    between atoms: _384  and  _385
REMARK  156  A    between atoms: _385  and  _386
REMARK  157  A    between atoms: _388  and  _390
REMARK  158  A    between atoms: _390  and  _391
REMARK  159  A    between atoms: _390  and  _393
REMARK  160  A    between atoms: _396  and  _398
REMARK  161  A    between atoms: _398  and  _399
REMARK  162  A    between atoms: _401  and  _403
REMARK  163  A    between atoms: _403  and  _404
REMARK  164  A    between atoms: _406  and  _408
REMARK  165  A    between atoms: _408  and  _409
REMARK  166  A    between atoms: _408  and  _411
REMARK  167  A    between atoms: _411  and  _412
REMARK  168  A    between atoms: _415  and  _417
REMARK  169  A    between atoms: _417  and  _418
REMARK  170  A    between atoms: _420  and  _422
REMARK  171  A    between atoms: _422  and  _423
REMARK  172  A    between atoms: _425  and  _427
REMARK  173  A    between atoms: _427  and  _428
REMARK  174  A    between atoms: _427  and  _430
REMARK  175  A    between atoms: _430  and  _431
REMARK  176  A    between atoms: _437  and  _439
REMARK  177  A    between atoms: _439  and  _440
REMARK  178  A    between atoms: _439  and  _442
REMARK  179  A    between atoms: _442  and  _443
REMARK  180  A    between atoms: _446  and  _448
REMARK  181  A    between atoms: _448  and  _449
REMARK  182  A    between atoms: _448  and  _451
REMARK  183  A    between atoms: _454  and  _456
REMARK  184  A    between atoms: _456  and  _457
REMARK  185  A    between atoms: _456  and  _459
REMARK  186  A    between atoms: _459  and  _460
REMARK  187  A    between atoms: _463  and  _465
REMARK  188  A    between atoms: _465  and  _466
REMARK  189  A    between atoms: _465  and  _468
REMARK  190  A    between atoms: _468  and  _469
REMARK  191  A    between atoms: _473  and  _474
REMARK  192  A    between atoms: _479  and  _481
REMARK  193  A    between atoms: _481  and  _482
REMARK  194  A    between atoms: _481  and  _484
REMARK  195  A    between atoms: _487  and  _489
REMARK  196  A    between atoms: _489  and  _490
REMARK  197  A    between atoms: _489  and  _492
REMARK  198  A    between atoms: _492  and  _493
REMARK  199  A    between atoms: _498  and  _500
REMARK  200  A    between atoms: _500  and  _501
REMARK  201  A    between atoms: _500  and  _503
REMARK  202  A    between atoms: _506  and  _508
REMARK  203  A    between atoms: _508  and  _509
REMARK  204  A    between atoms: _508  and  _511
REMARK  205  A    between atoms: _511  and  _512
REMARK  206  A    between atoms: _515  and  _517
REMARK  207  A    between atoms: _517  and  _518
REMARK  208  A    between atoms: _520  and  _522
REMARK  209  A    between atoms: _522  and  _523
REMARK  210  A    between atoms: _522  and  _525
REMARK  211  A    between atoms: _525  and  _526
REMARK  212  A    between atoms: _526  and  _527
REMARK  213  A    between atoms: _527  and  _528
REMARK  214  A    between atoms: _537  and  _539
REMARK  215  A    between atoms: _539  and  _540
REMARK  216  A    between atoms: _539  and  _542
REMARK  217  A    between atoms: _542  and  _543
REMARK                            x       y       z     vdW  Elec       q    Type
REMARK                         _______ _______ _______ _____ _____    ______ ____
ROOT
ATOM      1  O   HOH     1     -20.127   2.933  14.911  0.00  0.00    +0.000 OA
ENDROOT
TORSDOF 0
REMARK  Name = ../refined-set-2016/4yhq/4yhq_pocket.pdb
REMARK  217 active torsions:
REMARK  status: ('A' for Active; 'I' for Inactive)
REMARK    1  A    between atoms: _1  and  _3
REMARK    2  A    between atoms: _3  and  _4
REMARK    3  A    between atoms: _3  and  _6
REMARK    4  A    between atoms: _6  and  _7
REMARK    5  A    between atoms: _7  and  _8
REMARK    6  A    between atoms: _8  and  _9
REMARK    7  A    between atoms: _18  and  _20
REMARK    8  A    between atoms: _20  and  _21
REMARK    9  A    between atoms: _20  and  _23
REMARK   10  A    between atoms: _23  and  _24
REMARK   11  A    between atoms: _30  and  _32
REMARK   12  A    between atoms: _32  and  _33
REMARK   13  A    between atoms: _32  and  _35
REMARK   14  A    between atoms: _35  and  _36
REMARK   15  A    between atoms: _39  and  _41
REMARK   16  A    between atoms: _41  and  _42
REMARK   17  A    between atoms: _41  and  _44
REMARK   18  A    between atoms: _44  and  _45
REMARK   19  A    between atoms: _48  and  _50
REMARK   20  A    between atoms: _50  and  _51
REMARK   21  A    between atoms: _50  and  _53
REMARK   22  A    between atoms: _53  and  _54
REMARK   23  A    between atoms: _57  and  _59
REMARK   24  A    between atoms: _59  and  _60
REMARK   25  A    between atoms: _59  and  _62
REMARK   26  A    between atoms: _62  and  _63
REMARK   27  A    between atoms: _66  and  _68
REMARK   28  A    between atoms: _68  and  _69
REMARK   29  A    between atoms: _71  and  _73
REMARK   30  A    between atoms: _73  and  _74
REMARK   31  A    between atoms: _77  and  _79
REMARK   32  A    between atoms: _79  and  _80
REMARK   33  A    between atoms: _79  and  _82
REMARK   34  A    between atoms: _82  and  _83
REMARK   35  A    between atoms: _86  and  _88
REMARK   36  A    between atoms: _88  and  _89
REMARK   37  A    between atoms: _88  and  _91
REMARK   38  A    between atoms: _91  and  _92
REMARK   39  A    between atoms: _97  and  _99
REMARK   40  A    between atoms: _99  and  _100
REMARK   41  A    between atoms: _99  and  _102
REMARK   42  A    between atoms: _102  and  _103
REMARK   43  A    between atoms: _106  and  _108
REMARK   44  A    between atoms: _108  and  _109
REMARK   45  A    between atoms: _108  and  _111
REMARK   46  A    between atoms: _111  and  _112
REMARK   47  A    between atoms: _115  and  _117
REMARK   48  A    between atoms: _117  and  _118
REMARK   49  A    between atoms: _117  and  _120
REMARK   50  A    between atoms: _120  and  _121
REMARK   51  A    between atoms: _121  and  _122
REMARK   52  A    between atoms: _124  and  _126
REMARK   53  A    between atoms: _126  and  _127
REMARK   54  A    between atoms: _126  and  _129
REMARK   55  A    between atoms: _132  and  _134
REMARK   56  A    between atoms: _134  and  _135
REMARK   57  A    between atoms: _137  and  _139
REMARK   58  A    between atoms: _139  and  _140
REMARK   59  A    between atoms: _142  and  _144
REMARK   60  A    between atoms: _144  and  _145
REMARK   61  A    between atoms: _144  and  _147
REMARK   62  A    between atoms: _147  and  _148
REMARK   63  A    between atoms: _151  and  _153
REMARK   64  A    between atoms: _153  and  _154
REMARK   65  A    between atoms: _156  and  _158
REMARK   66  A    between atoms: _158  and  _159
REMARK   67  A    between atoms: _161  and  _163
REMARK   68  A    between atoms: _163  and  _164
REMARK   69  A    between atoms: _163  and  _166
REMARK   70  A    between atoms: _166  and  _167
REMARK   71  A    between atoms: _173  and  _175
REMARK   72  A    between atoms: _175  and  _176
REMARK   73  A    between atoms: _175  and  _178
REMARK   74  A    between atoms: _178  and  _179
REMARK   75  A    between atoms: _182  and  _184
REMARK   76  A    between atoms: _184  and  _185
REMARK   77  A    between atoms: _184  and  _187
REMARK   78  A    between atoms: _187  and  _188
REMARK   79  A    between atoms: _191  and  _193
REMARK   80  A    between atoms: _193  and  _194
REMARK   81  A    between atoms: _193  and  _196
REMARK   82  A    between atoms: _196  and  _197
REMARK   83  A    between atoms: _201  and  _202
REMARK   84  A    between atoms: _207  and  _209
REMARK   85  A    between atoms: _209  and  _210
REMARK   86  A    between atoms: _209  and  _212
REMARK   87  A    between atoms: _215  and  _217
REMARK   88  A    between atoms: _217  and  _218
REMARK   89  A    between atoms: _217  and  _220
REMARK   90  A    between atoms: _220  and  _221
REMARK   91  A    between atoms: _226  and  _228
REMARK   92  A    between atoms: _228  and  _229
REMARK   93  A    between atoms: _228  and  _231
REMARK   94  A    between atoms: _234  and  _236
REMARK   95  A    between atoms: _236  and  _237
REMARK   96  A    between atoms: _239  and  _241
REMARK   97  A    between atoms: _241  and  _242
REMARK   98  A    between atoms: _241  and  _244
REMARK   99  A    between atoms: _244  and  _245
REMARK  100  A    between atoms: _245  and  _246
REMARK  101  A    between atoms: _246  and  _247
REMARK  102  A    between atoms: _256  and  _258
REMARK  103  A    between atoms: _258  and  _259
REMARK  104  A    between atoms: _258  and  _261
REMARK  105  A    between atoms: _261  and  _262
REMARK  106  A    between atoms: _265  and  _267
REMARK  107  A    between atoms: _267  and  _268
REMARK  108  A    between atoms: _267  and  _270
REMARK  109  A    between atoms: _270  and  _271
REMARK  110  A    between atoms: _271  and  _272
REMARK  111  A    between atoms: _272  and  _273
REMARK  112  A    between atoms: _282  and  _284
REMARK  113  A    between atoms: _284  and  _285
REMARK  114  A    between atoms: _284  and  _287
REMARK  115  A    between atoms: _287  and  _288
REMARK  116  A    between atoms: _294  and  _296
REMARK  117  A    between atoms: _296  and  _297
REMARK  118  A    between atoms: _296  and  _299
REMARK  119  A    between atoms: _299  and  _300
REMARK  120  A    between atoms: _303  and  _305
REMARK  121  A    between atoms: _305  and  _306
REMARK  122  A    between atoms: _305  and  _308
REMARK  123  A    between atoms: _308  and  _309
REMARK  124  A    between atoms: _312  and  _314
REMARK  125  A    between atoms: _314  and  _315
REMARK  126  A    between atoms: _314  and  _317
REMARK  127  A    between atoms: _317  and  _318
REMARK  128  A    between atoms: _321  and  _323
REMARK  129  A    between atoms: _323  and  _324
REMARK  130  A    between atoms: _323  and  _326
REMARK  131  A    between atoms: _326  and  _327
REMARK  132  A    between atoms: _330  and  _332
REMARK  133  A    between atoms: _332  and  _333
REMARK  134  A    between atoms: _335  and  _337
REMARK  135  A    between atoms: _337  and  _338
REMARK  136  A    between atoms: _341  and  _343
REMARK  137  A    between atoms: _343  and  _344
REMARK  138  A    between atoms: _343  and  _346
REMARK  139  A    between atoms: _346  and  _347
REMARK  140  A    between atoms: _350  and  _352
REMARK  141  A    between atoms: _352  and  _353
REMARK  142  A    between atoms: _352  and  _355
REMARK  143  A    between atoms: _355  and  _356
REMARK  144  A    between atoms: _361  and  _363
REMARK  145  A    between atoms: _363  and  _364
REMARK  146  A    between atoms: _363  and  _366
REMARK  147  A    between atoms: _366  and  _367
REMARK  148  A    between atoms: _370  and  _372
REMARK  149  A    between atoms: _372  and  _373
REMARK  150  A    between atoms: _372  and  _375
REMARK  151  A    between atoms: _375  and  _376
REMARK  152  A    between atoms: _379  and  _381
REMARK  153  A    between atoms: _381  and  _382
REMARK  154  A    between atoms: _381  and  _384
REMARK  155  A    between atoms: _384  and  _385
REMARK  156  A    between atoms: _385  and  _386
REMARK  157  A    between atoms: _388  and  _390
REMARK  158  A    between atoms: _390  and  _391
REMARK  159  A    between atoms: _390  and  _393
REMARK  160  A    between atoms: _396  and  _398
REMARK  161  A    between atoms: _398  and  _399
REMARK  162  A    between atoms: _401  and  _403
REMARK  163  A    between atoms: _403  and  _404
REMARK  164  A    between atoms: _406  and  _408
REMARK  165  A    between atoms: _408  and  _409
REMARK  166  A    between atoms: _408  and  _411
REMARK  167  A    between atoms: _411  and  _412
REMARK  168  A    between atoms: _415  and  _417
REMARK  169  A    between atoms: _417  and  _418
REMARK  170  A    between atoms: _420  and  _422
REMARK  171  A    between atoms: _422  and  _423
REMARK  172  A    between atoms: _425  and  _427
REMARK  173  A    between atoms: _427  and  _428
REMARK  174  A    between atoms: _427  and  _430
REMARK  175  A    between atoms: _430  and  _431
REMARK  176  A    between atoms: _437  and  _439
REMARK  177  A    between atoms: _439  and  _440
REMARK  178  A    between atoms: _439  and  _442
REMARK  179  A    between atoms: _442  and  _443
REMARK  180  A    between atoms: _446  and  _448
REMARK  181  A    between atoms: _448  and  _449
REMARK  182  A    between atoms: _448  and  _451
REMARK  183  A    between atoms: _454  and  _456
REMARK  184  A    between atoms: _456  and  _457
REMARK  185  A    between atoms: _456  and  _459
REMARK  186  A    between atoms: _459  and  _460
REMARK  187  A    between atoms: _463  and  _465
REMARK  188  A    between atoms: _465  and  _466
REMARK  189  A    between atoms: _465  and  _468
REMARK  190  A    between atoms: _468  and  _469
REMARK  191  A    between atoms: _473  and  _474
REMARK  192  A    between atoms: _479  and  _481
REMARK  193  A    between atoms: _481  and  _482
REMARK  194  A    between atoms: _481  and  _484
REMARK  195  A    between atoms: _487  and  _489
REMARK  196  A    between atoms: _489  and  _490
REMARK  197  A    between atoms: _489  and  _492
REMARK  198  A    between atoms: _492  and  _493
REMARK  199  A    between atoms: _498  and  _500
REMARK  200  A    between atoms: _500  and  _501
REMARK  201  A    between atoms: _500  and  _503
REMARK  202  A    between atoms: _506  and  _508
REMARK  203  A    between atoms: _508  and  _509
REMARK  204  A    between atoms: _508  and  _511
REMARK  205  A    between atoms: _511  and  _512
REMARK  206  A    between atoms: _515  and  _517
REMARK  207  A    between atoms: _517  and  _518
REMARK  208  A    between atoms: _520  and  _522
REMARK  209  A    between atoms: _522  and  _523
REMARK  210  A    between atoms: _522  and  _525
REMARK  211  A    between atoms: _525  and  _526
REMARK  212  A    between atoms: _526  and  _527
REMARK  213  A    between atoms: _527  and  _528
REMARK  214  A    between atoms: _537  and  _539
REMARK  215  A    between atoms: _539  and  _540
REMARK  216  A    between atoms: _539  and  _542
REMARK  217  A    between atoms: _542  and  _543
REMARK                            x       y       z     vdW  Elec       q    Type
REMARK                         _______ _______ _______ _____ _____    ______ ____
ROOT
ATOM      1  O   HOH     1     -20.949  -5.571   6.007  0.00  0.00    +0.000 OA
ENDROOT
TORSDOF 0
REMARK  Name = ../refined-set-2016/4yhq/4yhq_pocket.pdb
REMARK  217 active torsions:
REMARK  status: ('A' for Active; 'I' for Inactive)
REMARK    1  A    between atoms: _1  and  _3
REMARK    2  A    between atoms: _3  and  _4
REMARK    3  A    between atoms: _3  and  _6
REMARK    4  A    between atoms: _6  and  _7
REMARK    5  A    between atoms: _7  and  _8
REMARK    6  A    between atoms: _8  and  _9
REMARK    7  A    between atoms: _18  and  _20
REMARK    8  A    between atoms: _20  and  _21
REMARK    9  A    between atoms: _20  and  _23
REMARK   10  A    between atoms: _23  and  _24
REMARK   11  A    between atoms: _30  and  _32
REMARK   12  A    between atoms: _32  and  _33
REMARK   13  A    between atoms: _32  and  _35
REMARK   14  A    between atoms: _35  and  _36
REMARK   15  A    between atoms: _39  and  _41
REMARK   16  A    between atoms: _41  and  _42
REMARK   17  A    between atoms: _41  and  _44
REMARK   18  A    between atoms: _44  and  _45
REMARK   19  A    between atoms: _48  and  _50
REMARK   20  A    between atoms: _50  and  _51
REMARK   21  A    between atoms: _50  and  _53
REMARK   22  A    between atoms: _53  and  _54
REMARK   23  A    between atoms: _57  and  _59
REMARK   24  A    between atoms: _59  and  _60
REMARK   25  A    between atoms: _59  and  _62
REMARK   26  A    between atoms: _62  and  _63
REMARK   27  A    between atoms: _66  and  _68
REMARK   28  A    between atoms: _68  and  _69
REMARK   29  A    between atoms: _71  and  _73
REMARK   30  A    between atoms: _73  and  _74
REMARK   31  A    between atoms: _77  and  _79
REMARK   32  A    between atoms: _79  and  _80
REMARK   33  A    between atoms: _79  and  _82
REMARK   34  A    between atoms: _82  and  _83
REMARK   35  A    between atoms: _86  and  _88
REMARK   36  A    between atoms: _88  and  _89
REMARK   37  A    between atoms: _88  and  _91
REMARK   38  A    between atoms: _91  and  _92
REMARK   39  A    between atoms: _97  and  _99
REMARK   40  A    between atoms: _99  and  _100
REMARK   41  A    between atoms: _99  and  _102
REMARK   42  A    between atoms: _102  and  _103
REMARK   43  A    between atoms: _106  and  _108
REMARK   44  A    between atoms: _108  and  _109
REMARK   45  A    between atoms: _108  and  _111
REMARK   46  A    between atoms: _111  and  _112
REMARK   47  A    between atoms: _115  and  _117
REMARK   48  A    between atoms: _117  and  _118
REMARK   49  A    between atoms: _117  and  _120
REMARK   50  A    between atoms: _120  and  _121
REMARK   51  A    between atoms: _121  and  _122
REMARK   52  A    between atoms: _124  and  _126
REMARK   53  A    between atoms: _126  and  _127
REMARK   54  A    between atoms: _126  and  _129
REMARK   55  A    between atoms: _132  and  _134
REMARK   56  A    between atoms: _134  and  _135
REMARK   57  A    between atoms: _137  and  _139
REMARK   58  A    between atoms: _139  and  _140
REMARK   59  A    between atoms: _142  and  _144
REMARK   60  A    between atoms: _144  and  _145
REMARK   61  A    between atoms: _144  and  _147
REMARK   62  A    between atoms: _147  and  _148
REMARK   63  A    between atoms: _151  and  _153
REMARK   64  A    between atoms: _153  and  _154
REMARK   65  A    between atoms: _156  and  _158
REMARK   66  A    between atoms: _158  and  _159
REMARK   67  A    between atoms: _161  and  _163
REMARK   68  A    between atoms: _163  and  _164
REMARK   69  A    between atoms: _163  and  _166
REMARK   70  A    between atoms: _166  and  _167
REMARK   71  A    between atoms: _173  and  _175
REMARK   72  A    between atoms: _175  and  _176
REMARK   73  A    between atoms: _175  and  _178
REMARK   74  A    between atoms: _178  and  _179
REMARK   75  A    between atoms: _182  and  _184
REMARK   76  A    between atoms: _184  and  _185
REMARK   77  A    between atoms: _184  and  _187
REMARK   78  A    between atoms: _187  and  _188
REMARK   79  A    between atoms: _191  and  _193
REMARK   80  A    between atoms: _193  and  _194
REMARK   81  A    between atoms: _193  and  _196
REMARK   82  A    between atoms: _196  and  _197
REMARK   83  A    between atoms: _201  and  _202
REMARK   84  A    between atoms: _207  and  _209
REMARK   85  A    between atoms: _209  and  _210
REMARK   86  A    between atoms: _209  and  _212
REMARK   87  A    between atoms: _215  and  _217
REMARK   88  A    between atoms: _217  and  _218
REMARK   89  A    between atoms: _217  and  _220
REMARK   90  A    between atoms: _220  and  _221
REMARK   91  A    between atoms: _226  and  _228
REMARK   92  A    between atoms: _228  and  _229
REMARK   93  A    between atoms: _228  and  _231
REMARK   94  A    between atoms: _234  and  _236
REMARK   95  A    between atoms: _236  and  _237
REMARK   96  A    between atoms: _239  and  _241
REMARK   97  A    between atoms: _241  and  _242
REMARK   98  A    between atoms: _241  and  _244
REMARK   99  A    between atoms: _244  and  _245
REMARK  100  A    between atoms: _245  and  _246
REMARK  101  A    between atoms: _246  and  _247
REMARK  102  A    between atoms: _256  and  _258
REMARK  103  A    between atoms: _258  and  _259
REMARK  104  A    between atoms: _258  and  _261
REMARK  105  A    between atoms: _261  and  _262
REMARK  106  A    between atoms: _265  and  _267
REMARK  107  A    between atoms: _267  and  _268
REMARK  108  A    between atoms: _267  and  _270
REMARK  109  A    between atoms: _270  and  _271
REMARK  110  A    between atoms: _271  and  _272
REMARK  111  A    between atoms: _272  and  _273
REMARK  112  A    between atoms: _282  and  _284
REMARK  113  A    between atoms: _284  and  _285
REMARK  114  A    between atoms: _284  and  _287
REMARK  115  A    between atoms: _287  and  _288
REMARK  116  A    between atoms: _294  and  _296
REMARK  117  A    between atoms: _296  and  _297
REMARK  118  A    between atoms: _296  and  _299
REMARK  119  A    between atoms: _299  and  _300
REMARK  120  A    between atoms: _303  and  _305
REMARK  121  A    between atoms: _305  and  _306
REMARK  122  A    between atoms: _305  and  _308
REMARK  123  A    between atoms: _308  and  _309
REMARK  124  A    between atoms: _312  and  _314
REMARK  125  A    between atoms: _314  and  _315
REMARK  126  A    between atoms: _314  and  _317
REMARK  127  A    between atoms: _317  and  _318
REMARK  128  A    between atoms: _321  and  _323
REMARK  129  A    between atoms: _323  and  _324
REMARK  130  A    between atoms: _323  and  _326
REMARK  131  A    between atoms: _326  and  _327
REMARK  132  A    between atoms: _330  and  _332
REMARK  133  A    between atoms: _332  and  _333
REMARK  134  A    between atoms: _335  and  _337
REMARK  135  A    between atoms: _337  and  _338
REMARK  136  A    between atoms: _341  and  _343
REMARK  137  A    between atoms: _343  and  _344
REMARK  138  A    between atoms: _343  and  _346
REMARK  139  A    between atoms: _346  and  _347
REMARK  140  A    between atoms: _350  and  _352
REMARK  141  A    between atoms: _352  and  _353
REMARK  142  A    between atoms: _352  and  _355
REMARK  143  A    between atoms: _355  and  _356
REMARK  144  A    between atoms: _361  and  _363
REMARK  145  A    between atoms: _363  and  _364
REMARK  146  A    between atoms: _363  and  _366
REMARK  147  A    between atoms: _366  and  _367
REMARK  148  A    between atoms: _370  and  _372
REMARK  149  A    between atoms: _372  and  _373
REMARK  150  A    between atoms: _372  and  _375
REMARK  151  A    between atoms: _375  and  _376
REMARK  152  A    between atoms: _379  and  _381
REMARK  153  A    between atoms: _381  and  _382
REMARK  154  A    between atoms: _381  and  _384
REMARK  155  A    between atoms: _384  and  _385
REMARK  156  A    between atoms: _385  and  _386
REMARK  157  A    between atoms: _388  and  _390
REMARK  158  A    between atoms: _390  and  _391
REMARK  159  A    between atoms: _390  and  _393
REMARK  160  A    between atoms: _396  and  _398
REMARK  161  A    between atoms: _398  and  _399
REMARK  162  A    between atoms: _401  and  _403
REMARK  163  A    between atoms: _403  and  _404
REMARK  164  A    between atoms: _406  and  _408
REMARK  165  A    between atoms: _408  and  _409
REMARK  166  A    between atoms: _408  and  _411
REMARK  167  A    between atoms: _411  and  _412
REMARK  168  A    between atoms: _415  and  _417
REMARK  169  A    between atoms: _417  and  _418
REMARK  170  A    between atoms: _420  and  _422
REMARK  171  A    between atoms: _422  and  _423
REMARK  172  A    between atoms: _425  and  _427
REMARK  173  A    between atoms: _427  and  _428
REMARK  174  A    between atoms: _427  and  _430
REMARK  175  A    between atoms: _430  and  _431
REMARK  176  A    between atoms: _437  and  _439
REMARK  177  A    between atoms: _439  and  _440
REMARK  178  A    between atoms: _439  and  _442
REMARK  179  A    between atoms: _442  and  _443
REMARK  180  A    between atoms: _446  and  _448
REMARK  181  A    between atoms: _448  and  _449
REMARK  182  A    between atoms: _448  and  _451
REMARK  183  A    between atoms: _454  and  _456
REMARK  184  A    between atoms: _456  and  _457
REMARK  185  A    between atoms: _456  and  _459
REMARK  186  A    between atoms: _459  and  _460
REMARK  187  A    between atoms: _463  and  _465
REMARK  188  A    between atoms: _465  and  _466
REMARK  189  A    between atoms: _465  and  _468
REMARK  190  A    between atoms: _468  and  _469
REMARK  191  A    between atoms: _473  and  _474
REMARK  192  A    between atoms: _479  and  _481
REMARK  193  A    between atoms: _481  and  _482
REMARK  194  A    between atoms: _481  and  _484
REMARK  195  A    between atoms: _487  and  _489
REMARK  196  A    between atoms: _489  and  _490
REMARK  197  A    between atoms: _489  and  _492
REMARK  198  A    between atoms: _492  and  _493
REMARK  199  A    between atoms: _498  and  _500
REMARK  200  A    between atoms: _500  and  _501
REMARK  201  A    between atoms: _500  and  _503
REMARK  202  A    between atoms: _506  and  _508
REMARK  203  A    between atoms: _508  and  _509
REMARK  204  A    between atoms: _508  and  _511
REMARK  205  A    between atoms: _511  and  _512
REMARK  206  A    between atoms: _515  and  _517
REMARK  207  A    between atoms: _517  and  _518
REMARK  208  A    between atoms: _520  and  _522
REMARK  209  A    between atoms: _522  and  _523
REMARK  210  A    between atoms: _522  and  _525
REMARK  211  A    between atoms: _525  and  _526
REMARK  212  A    between atoms: _526  and  _527
REMARK  213  A    between atoms: _527  and  _528
REMARK  214  A    between atoms: _537  and  _539
REMARK  215  A    between atoms: _539  and  _540
REMARK  216  A    between atoms: _539  and  _542
REMARK  217  A    between atoms: _542  and  _543
REMARK                            x       y       z     vdW  Elec       q    Type
REMARK                         _______ _______ _______ _____ _____    ______ ____
ROOT
ATOM      1  O   UNL     1     -14.550  -0.052   1.069  0.00  0.00    +0.000 OA
ATOM      2  O   UNL     1     -14.578   0.007   2.166  0.00  0.00    +0.000 OA
ENDROOT
TORSDOF 0
REMARK  Name = ../refined-set-2016/4yhq/4yhq_pocket.pdb
REMARK  217 active torsions:
REMARK  status: ('A' for Active; 'I' for Inactive)
REMARK    1  A    between atoms: _1  and  _3
REMARK    2  A    between atoms: _3  and  _4
REMARK    3  A    between atoms: _3  and  _6
REMARK    4  A    between atoms: _6  and  _7
REMARK    5  A    between atoms: _7  and  _8
REMARK    6  A    between atoms: _8  and  _9
REMARK    7  A    between atoms: _18  and  _20
REMARK    8  A    between atoms: _20  and  _21
REMARK    9  A    between atoms: _20  and  _23
REMARK   10  A    between atoms: _23  and  _24
REMARK   11  A    between atoms: _30  and  _32
REMARK   12  A    between atoms: _32  and  _33
REMARK   13  A    between atoms: _32  and  _35
REMARK   14  A    between atoms: _35  and  _36
REMARK   15  A    between atoms: _39  and  _41
REMARK   16  A    between atoms: _41  and  _42
REMARK   17  A    between atoms: _41  and  _44
REMARK   18  A    between atoms: _44  and  _45
REMARK   19  A    between atoms: _48  and  _50
REMARK   20  A    between atoms: _50  and  _51
REMARK   21  A    between atoms: _50  and  _53
REMARK   22  A    between atoms: _53  and  _54
REMARK   23  A    between atoms: _57  and  _59
REMARK   24  A    between atoms: _59  and  _60
REMARK   25  A    between atoms: _59  and  _62
REMARK   26  A    between atoms: _62  and  _63
REMARK   27  A    between atoms: _66  and  _68
REMARK   28  A    between atoms: _68  and  _69
REMARK   29  A    between atoms: _71  and  _73
REMARK   30  A    between atoms: _73  and  _74
REMARK   31  A    between atoms: _77  and  _79
REMARK   32  A    between atoms: _79  and  _80
REMARK   33  A    between atoms: _79  and  _82
REMARK   34  A    between atoms: _82  and  _83
REMARK   35  A    between atoms: _86  and  _88
REMARK   36  A    between atoms: _88  and  _89
REMARK   37  A    between atoms: _88  and  _91
REMARK   38  A    between atoms: _91  and  _92
REMARK   39  A    between atoms: _97  and  _99
REMARK   40  A    between atoms: _99  and  _100
REMARK   41  A    between atoms: _99  and  _102
REMARK   42  A    between atoms: _102  and  _103
REMARK   43  A    between atoms: _106  and  _108
REMARK   44  A    between atoms: _108  and  _109
REMARK   45  A    between atoms: _108  and  _111
REMARK   46  A    between atoms: _111  and  _112
REMARK   47  A    between atoms: _115  and  _117
REMARK   48  A    between atoms: _117  and  _118
REMARK   49  A    between atoms: _117  and  _120
REMARK   50  A    between atoms: _120  and  _121
REMARK   51  A    between atoms: _121  and  _122
REMARK   52  A    between atoms: _124  and  _126
REMARK   53  A    between atoms: _126  and  _127
REMARK   54  A    between atoms: _126  and  _129
REMARK   55  A    between atoms: _132  and  _134
REMARK   56  A    between atoms: _134  and  _135
REMARK   57  A    between atoms: _137  and  _139
REMARK   58  A    between atoms: _139  and  _140
REMARK   59  A    between atoms: _142  and  _144
REMARK   60  A    between atoms: _144  and  _145
REMARK   61  A    between atoms: _144  and  _147
REMARK   62  A    between atoms: _147  and  _148
REMARK   63  A    between atoms: _151  and  _153
REMARK   64  A    between atoms: _153  and  _154
REMARK   65  A    between atoms: _156  and  _158
REMARK   66  A    between atoms: _158  and  _159
REMARK   67  A    between atoms: _161  and  _163
REMARK   68  A    between atoms: _163  and  _164
REMARK   69  A    between atoms: _163  and  _166
REMARK   70  A    between atoms: _166  and  _167
REMARK   71  A    between atoms: _173  and  _175
REMARK   72  A    between atoms: _175  and  _176
REMARK   73  A    between atoms: _175  and  _178
REMARK   74  A    between atoms: _178  and  _179
REMARK   75  A    between atoms: _182  and  _184
REMARK   76  A    between atoms: _184  and  _185
REMARK   77  A    between atoms: _184  and  _187
REMARK   78  A    between atoms: _187  and  _188
REMARK   79  A    between atoms: _191  and  _193
REMARK   80  A    between atoms: _193  and  _194
REMARK   81  A    between atoms: _193  and  _196
REMARK   82  A    between atoms: _196  and  _197
REMARK   83  A    between atoms: _201  and  _202
REMARK   84  A    between atoms: _207  and  _209
REMARK   85  A    between atoms: _209  and  _210
REMARK   86  A    between atoms: _209  and  _212
REMARK   87  A    between atoms: _215  and  _217
REMARK   88  A    between atoms: _217  and  _218
REMARK   89  A    between atoms: _217  and  _220
REMARK   90  A    between atoms: _220  and  _221
REMARK   91  A    between atoms: _226  and  _228
REMARK   92  A    between atoms: _228  and  _229
REMARK   93  A    between atoms: _228  and  _231
REMARK   94  A    between atoms: _234  and  _236
REMARK   95  A    between atoms: _236  and  _237
REMARK   96  A    between atoms: _239  and  _241
REMARK   97  A    between atoms: _241  and  _242
REMARK   98  A    between atoms: _241  and  _244
REMARK   99  A    between atoms: _244  and  _245
REMARK  100  A    between atoms: _245  and  _246
REMARK  101  A    between atoms: _246  and  _247
REMARK  102  A    between atoms: _256  and  _258
REMARK  103  A    between atoms: _258  and  _259
REMARK  104  A    between atoms: _258  and  _261
REMARK  105  A    between atoms: _261  and  _262
REMARK  106  A    between atoms: _265  and  _267
REMARK  107  A    between atoms: _267  and  _268
REMARK  108  A    between atoms: _267  and  _270
REMARK  109  A    between atoms: _270  and  _271
REMARK  110  A    between atoms: _271  and  _272
REMARK  111  A    between atoms: _272  and  _273
REMARK  112  A    between atoms: _282  and  _284
REMARK  113  A    between atoms: _284  and  _285
REMARK  114  A    between atoms: _284  and  _287
REMARK  115  A    between atoms: _287  and  _288
REMARK  116  A    between atoms: _294  and  _296
REMARK  117  A    between atoms: _296  and  _297
REMARK  118  A    between atoms: _296  and  _299
REMARK  119  A    between atoms: _299  and  _300
REMARK  120  A    between atoms: _303  and  _305
REMARK  121  A    between atoms: _305  and  _306
REMARK  122  A    between atoms: _305  and  _308
REMARK  123  A    between atoms: _308  and  _309
REMARK  124  A    between atoms: _312  and  _314
REMARK  125  A    between atoms: _314  and  _315
REMARK  126  A    between atoms: _314  and  _317
REMARK  127  A    between atoms: _317  and  _318
REMARK  128  A    between atoms: _321  and  _323
REMARK  129  A    between atoms: _323  and  _324
REMARK  130  A    between atoms: _323  and  _326
REMARK  131  A    between atoms: _326  and  _327
REMARK  132  A    between atoms: _330  and  _332
REMARK  133  A    between atoms: _332  and  _333
REMARK  134  A    between atoms: _335  and  _337
REMARK  135  A    between atoms: _337  and  _338
REMARK  136  A    between atoms: _341  and  _343
REMARK  137  A    between atoms: _343  and  _344
REMARK  138  A    between atoms: _343  and  _346
REMARK  139  A    between atoms: _346  and  _347
REMARK  140  A    between atoms: _350  and  _352
REMARK  141  A    between atoms: _352  and  _353
REMARK  142  A    between atoms: _352  and  _355
REMARK  143  A    between atoms: _355  and  _356
REMARK  144  A    between atoms: _361  and  _363
REMARK  145  A    between atoms: _363  and  _364
REMARK  146  A    between atoms: _363  and  _366
REMARK  147  A    between atoms: _366  and  _367
REMARK  148  A    between atoms: _370  and  _372
REMARK  149  A    between atoms: _372  and  _373
REMARK  150  A    between atoms: _372  and  _375
REMARK  151  A    between atoms: _375  and  _376
REMARK  152  A    between atoms: _379  and  _381
REMARK  153  A    between atoms: _381  and  _382
REMARK  154  A    between atoms: _381  and  _384
REMARK  155  A    between atoms: _384  and  _385
REMARK  156  A    between atoms: _385  and  _386
REMARK  157  A    between atoms: _388  and  _390
REMARK  158  A    between atoms: _390  and  _391
REMARK  159  A    between atoms: _390  and  _393
REMARK  160  A    between atoms: _396  and  _398
REMARK  161  A    between atoms: _398  and  _399
REMARK  162  A    between atoms: _401  and  _403
REMARK  163  A    between atoms: _403  and  _404
REMARK  164  A    between atoms: _406  and  _408
REMARK  165  A    between atoms: _408  and  _409
REMARK  166  A    between atoms: _408  and  _411
REMARK  167  A    between atoms: _411  and  _412
REMARK  168  A    between atoms: _415  and  _417
REMARK  169  A    between atoms: _417  and  _418
REMARK  170  A    between atoms: _420  and  _422
REMARK  171  A    between atoms: _422  and  _423
REMARK  172  A    between atoms: _425  and  _427
REMARK  173  A    between atoms: _427  and  _428
REMARK  174  A    between atoms: _427  and  _430
REMARK  175  A    between atoms: _430  and  _431
REMARK  176  A    between atoms: _437  and  _439
REMARK  177  A    between atoms: _439  and  _440
REMARK  178  A    between atoms: _439  and  _442
REMARK  179  A    between atoms: _442  and  _443
REMARK  180  A    between atoms: _446  and  _448
REMARK  181  A    between atoms: _448  and  _449
REMARK  182  A    between atoms: _448  and  _451
REMARK  183  A    between atoms: _454  and  _456
REMARK  184  A    between atoms: _456  and  _457
REMARK  185  A    between atoms: _456  and  _459
REMARK  186  A    between atoms: _459  and  _460
REMARK  187  A    between atoms: _463  and  _465
REMARK  188  A    between atoms: _465  and  _466
REMARK  189  A    between atoms: _465  and  _468
REMARK  190  A    between atoms: _468  and  _469
REMARK  191  A    between atoms: _473  and  _474
REMARK  192  A    between atoms: _479  and  _481
REMARK  193  A    between atoms: _481  and  _482
REMARK  194  A    between atoms: _481  and  _484
REMARK  195  A    between atoms: _487  and  _489
REMARK  196  A    between atoms: _489  and  _490
REMARK  197  A    between atoms: _489  and  _492
REMARK  198  A    between atoms: _492  and  _493
REMARK  199  A    between atoms: _498  and  _500
REMARK  200  A    between atoms: _500  and  _501
REMARK  201  A    between atoms: _500  and  _503
REMARK  202  A    between atoms: _506  and  _508
REMARK  203  A    between atoms: _508  and  _509
REMARK  204  A    between atoms: _508  and  _511
REMARK  205  A    between atoms: _511  and  _512
REMARK  206  A    between atoms: _515  and  _517
REMARK  207  A    between atoms: _517  and  _518
REMARK  208  A    between atoms: _520  and  _522
REMARK  209  A    between atoms: _522  and  _523
REMARK  210  A    between atoms: _522  and  _525
REMARK  211  A    between atoms: _525  and  _526
REMARK  212  A    between atoms: _526  and  _527
REMARK  213  A    between atoms: _527  and  _528
REMARK  214  A    between atoms: _537  and  _539
REMARK  215  A    between atoms: _539  and  _540
REMARK  216  A    between atoms: _539  and  _542
REMARK  217  A    between atoms: _542  and  _543
REMARK                            x       y       z     vdW  Elec       q    Type
REMARK                         _______ _______ _______ _____ _____    ______ ____
ROOT
ATOM      1  O   HOH     1     -23.724  -3.771  12.978  0.00  0.00    +0.000 OA
ENDROOT
TORSDOF 0
REMARK  Name = ../refined-set-2016/4yhq/4yhq_pocket.pdb
REMARK  217 active torsions:
REMARK  status: ('A' for Active; 'I' for Inactive)
REMARK    1  A    between atoms: _1  and  _3
REMARK    2  A    between atoms: _3  and  _4
REMARK    3  A    between atoms: _3  and  _6
REMARK    4  A    between atoms: _6  and  _7
REMARK    5  A    between atoms: _7  and  _8
REMARK    6  A    between atoms: _8  and  _9
REMARK    7  A    between atoms: _18  and  _20
REMARK    8  A    between atoms: _20  and  _21
REMARK    9  A    between atoms: _20  and  _23
REMARK   10  A    between atoms: _23  and  _24
REMARK   11  A    between atoms: _30  and  _32
REMARK   12  A    between atoms: _32  and  _33
REMARK   13  A    between atoms: _32  and  _35
REMARK   14  A    between atoms: _35  and  _36
REMARK   15  A    between atoms: _39  and  _41
REMARK   16  A    between atoms: _41  and  _42
REMARK   17  A    between atoms: _41  and  _44
REMARK   18  A    between atoms: _44  and  _45
REMARK   19  A    between atoms: _48  and  _50
REMARK   20  A    between atoms: _50  and  _51
REMARK   21  A    between atoms: _50  and  _53
REMARK   22  A    between atoms: _53  and  _54
REMARK   23  A    between atoms: _57  and  _59
REMARK   24  A    between atoms: _59  and  _60
REMARK   25  A    between atoms: _59  and  _62
REMARK   26  A    between atoms: _62  and  _63
REMARK   27  A    between atoms: _66  and  _68
REMARK   28  A    between atoms: _68  and  _69
REMARK   29  A    between atoms: _71  and  _73
REMARK   30  A    between atoms: _73  and  _74
REMARK   31  A    between atoms: _77  and  _79
REMARK   32  A    between atoms: _79  and  _80
REMARK   33  A    between atoms: _79  and  _82
REMARK   34  A    between atoms: _82  and  _83
REMARK   35  A    between atoms: _86  and  _88
REMARK   36  A    between atoms: _88  and  _89
REMARK   37  A    between atoms: _88  and  _91
REMARK   38  A    between atoms: _91  and  _92
REMARK   39  A    between atoms: _97  and  _99
REMARK   40  A    between atoms: _99  and  _100
REMARK   41  A    between atoms: _99  and  _102
REMARK   42  A    between atoms: _102  and  _103
REMARK   43  A    between atoms: _106  and  _108
REMARK   44  A    between atoms: _108  and  _109
REMARK   45  A    between atoms: _108  and  _111
REMARK   46  A    between atoms: _111  and  _112
REMARK   47  A    between atoms: _115  and  _117
REMARK   48  A    between atoms: _117  and  _118
REMARK   49  A    between atoms: _117  and  _120
REMARK   50  A    between atoms: _120  and  _121
REMARK   51  A    between atoms: _121  and  _122
REMARK   52  A    between atoms: _124  and  _126
REMARK   53  A    between atoms: _126  and  _127
REMARK   54  A    between atoms: _126  and  _129
REMARK   55  A    between atoms: _132  and  _134
REMARK   56  A    between atoms: _134  and  _135
REMARK   57  A    between atoms: _137  and  _139
REMARK   58  A    between atoms: _139  and  _140
REMARK   59  A    between atoms: _142  and  _144
REMARK   60  A    between atoms: _144  and  _145
REMARK   61  A    between atoms: _144  and  _147
REMARK   62  A    between atoms: _147  and  _148
REMARK   63  A    between atoms: _151  and  _153
REMARK   64  A    between atoms: _153  and  _154
REMARK   65  A    between atoms: _156  and  _158
REMARK   66  A    between atoms: _158  and  _159
REMARK   67  A    between atoms: _161  and  _163
REMARK   68  A    between atoms: _163  and  _164
REMARK   69  A    between atoms: _163  and  _166
REMARK   70  A    between atoms: _166  and  _167
REMARK   71  A    between atoms: _173  and  _175
REMARK   72  A    between atoms: _175  and  _176
REMARK   73  A    between atoms: _175  and  _178
REMARK   74  A    between atoms: _178  and  _179
REMARK   75  A    between atoms: _182  and  _184
REMARK   76  A    between atoms: _184  and  _185
REMARK   77  A    between atoms: _184  and  _187
REMARK   78  A    between atoms: _187  and  _188
REMARK   79  A    between atoms: _191  and  _193
REMARK   80  A    between atoms: _193  and  _194
REMARK   81  A    between atoms: _193  and  _196
REMARK   82  A    between atoms: _196  and  _197
REMARK   83  A    between atoms: _201  and  _202
REMARK   84  A    between atoms: _207  and  _209
REMARK   85  A    between atoms: _209  and  _210
REMARK   86  A    between atoms: _209  and  _212
REMARK   87  A    between atoms: _215  and  _217
REMARK   88  A    between atoms: _217  and  _218
REMARK   89  A    between atoms: _217  and  _220
REMARK   90  A    between atoms: _220  and  _221
REMARK   91  A    between atoms: _226  and  _228
REMARK   92  A    between atoms: _228  and  _229
REMARK   93  A    between atoms: _228  and  _231
REMARK   94  A    between atoms: _234  and  _236
REMARK   95  A    between atoms: _236  and  _237
REMARK   96  A    between atoms: _239  and  _241
REMARK   97  A    between atoms: _241  and  _242
REMARK   98  A    between atoms: _241  and  _244
REMARK   99  A    between atoms: _244  and  _245
REMARK  100  A    between atoms: _245  and  _246
REMARK  101  A    between atoms: _246  and  _247
REMARK  102  A    between atoms: _256  and  _258
REMARK  103  A    between atoms: _258  and  _259
REMARK  104  A    between atoms: _258  and  _261
REMARK  105  A    between atoms: _261  and  _262
REMARK  106  A    between atoms: _265  and  _267
REMARK  107  A    between atoms: _267  and  _268
REMARK  108  A    between atoms: _267  and  _270
REMARK  109  A    between atoms: _270  and  _271
REMARK  110  A    between atoms: _271  and  _272
REMARK  111  A    between atoms: _272  and  _273
REMARK  112  A    between atoms: _282  and  _284
REMARK  113  A    between atoms: _284  and  _285
REMARK  114  A    between atoms: _284  and  _287
REMARK  115  A    between atoms: _287  and  _288
REMARK  116  A    between atoms: _294  and  _296
REMARK  117  A    between atoms: _296  and  _297
REMARK  118  A    between atoms: _296  and  _299
REMARK  119  A    between atoms: _299  and  _300
REMARK  120  A    between atoms: _303  and  _305
REMARK  121  A    between atoms: _305  and  _306
REMARK  122  A    between atoms: _305  and  _308
REMARK  123  A    between atoms: _308  and  _309
REMARK  124  A    between atoms: _312  and  _314
REMARK  125  A    between atoms: _314  and  _315
REMARK  126  A    between atoms: _314  and  _317
REMARK  127  A    between atoms: _317  and  _318
REMARK  128  A    between atoms: _321  and  _323
REMARK  129  A    between atoms: _323  and  _324
REMARK  130  A    between atoms: _323  and  _326
REMARK  131  A    between atoms: _326  and  _327
REMARK  132  A    between atoms: _330  and  _332
REMARK  133  A    between atoms: _332  and  _333
REMARK  134  A    between atoms: _335  and  _337
REMARK  135  A    between atoms: _337  and  _338
REMARK  136  A    between atoms: _341  and  _343
REMARK  137  A    between atoms: _343  and  _344
REMARK  138  A    between atoms: _343  and  _346
REMARK  139  A    between atoms: _346  and  _347
REMARK  140  A    between atoms: _350  and  _352
REMARK  141  A    between atoms: _352  and  _353
REMARK  142  A    between atoms: _352  and  _355
REMARK  143  A    between atoms: _355  and  _356
REMARK  144  A    between atoms: _361  and  _363
REMARK  145  A    between atoms: _363  and  _364
REMARK  146  A    between atoms: _363  and  _366
REMARK  147  A    between atoms: _366  and  _367
REMARK  148  A    between atoms: _370  and  _372
REMARK  149  A    between atoms: _372  and  _373
REMARK  150  A    between atoms: _372  and  _375
REMARK  151  A    between atoms: _375  and  _376
REMARK  152  A    between atoms: _379  and  _381
REMARK  153  A    between atoms: _381  and  _382
REMARK  154  A    between atoms: _381  and  _384
REMARK  155  A    between atoms: _384  and  _385
REMARK  156  A    between atoms: _385  and  _386
REMARK  157  A    between atoms: _388  and  _390
REMARK  158  A    between atoms: _390  and  _391
REMARK  159  A    between atoms: _390  and  _393
REMARK  160  A    between atoms: _396  and  _398
REMARK  161  A    between atoms: _398  and  _399
REMARK  162  A    between atoms: _401  and  _403
REMARK  163  A    between atoms: _403  and  _404
REMARK  164  A    between atoms: _406  and  _408
REMARK  165  A    between atoms: _408  and  _409
REMARK  166  A    between atoms: _408  and  _411
REMARK  167  A    between atoms: _411  and  _412
REMARK  168  A    between atoms: _415  and  _417
REMARK  169  A    between atoms: _417  and  _418
REMARK  170  A    between atoms: _420  and  _422
REMARK  171  A    between atoms: _422  and  _423
REMARK  172  A    between atoms: _425  and  _427
REMARK  173  A    between atoms: _427  and  _428
REMARK  174  A    between atoms: _427  and  _430
REMARK  175  A    between atoms: _430  and  _431
REMARK  176  A    between atoms: _437  and  _439
REMARK  177  A    between atoms: _439  and  _440
REMARK  178  A    between atoms: _439  and  _442
REMARK  179  A    between atoms: _442  and  _443
REMARK  180  A    between atoms: _446  and  _448
REMARK  181  A    between atoms: _448  and  _449
REMARK  182  A    between atoms: _448  and  _451
REMARK  183  A    between atoms: _454  and  _456
REMARK  184  A    between atoms: _456  and  _457
REMARK  185  A    between atoms: _456  and  _459
REMARK  186  A    between atoms: _459  and  _460
REMARK  187  A    between atoms: _463  and  _465
REMARK  188  A    between atoms: _465  and  _466
REMARK  189  A    between atoms: _465  and  _468
REMARK  190  A    between atoms: _468  and  _469
REMARK  191  A    between atoms: _473  and  _474
REMARK  192  A    between atoms: _479  and  _481
REMARK  193  A    between atoms: _481  and  _482
REMARK  194  A    between atoms: _481  and  _484
REMARK  195  A    between atoms: _487  and  _489
REMARK  196  A    between atoms: _489  and  _490
REMARK  197  A    between atoms: _489  and  _492
REMARK  198  A    between atoms: _492  and  _493
REMARK  199  A    between atoms: _498  and  _500
REMARK  200  A    between atoms: _500  and  _501
REMARK  201  A    between atoms: _500  and  _503
REMARK  202  A    between atoms: _506  and  _508
REMARK  203  A    between atoms: _508  and  _509
REMARK  204  A    between atoms: _508  and  _511
REMARK  205  A    between atoms: _511  and  _512
REMARK  206  A    between atoms: _515  and  _517
REMARK  207  A    between atoms: _517  and  _518
REMARK  208  A    between atoms: _520  and  _522
REMARK  209  A    between atoms: _522  and  _523
REMARK  210  A    between atoms: _522  and  _525
REMARK  211  A    between atoms: _525  and  _526
REMARK  212  A    between atoms: _526  and  _527
REMARK  213  A    between atoms: _527  and  _528
REMARK  214  A    between atoms: _537  and  _539
REMARK  215  A    between atoms: _539  and  _540
REMARK  216  A    between atoms: _539  and  _542
REMARK  217  A    between atoms: _542  and  _543
REMARK                            x       y       z     vdW  Elec       q    Type
REMARK                         _______ _______ _______ _____ _____    ______ ____
ROOT
ATOM      1  O   HOH     1     -18.445   0.255  15.971  0.00  0.00    +0.000 OA
ENDROOT
TORSDOF 0
REMARK  Name = ../refined-set-2016/4yhq/4yhq_pocket.pdb
REMARK  217 active torsions:
REMARK  status: ('A' for Active; 'I' for Inactive)
REMARK    1  A    between atoms: _1  and  _3
REMARK    2  A    between atoms: _3  and  _4
REMARK    3  A    between atoms: _3  and  _6
REMARK    4  A    between atoms: _6  and  _7
REMARK    5  A    between atoms: _7  and  _8
REMARK    6  A    between atoms: _8  and  _9
REMARK    7  A    between atoms: _18  and  _20
REMARK    8  A    between atoms: _20  and  _21
REMARK    9  A    between atoms: _20  and  _23
REMARK   10  A    between atoms: _23  and  _24
REMARK   11  A    between atoms: _30  and  _32
REMARK   12  A    between atoms: _32  and  _33
REMARK   13  A    between atoms: _32  and  _35
REMARK   14  A    between atoms: _35  and  _36
REMARK   15  A    between atoms: _39  and  _41
REMARK   16  A    between atoms: _41  and  _42
REMARK   17  A    between atoms: _41  and  _44
REMARK   18  A    between atoms: _44  and  _45
REMARK   19  A    between atoms: _48  and  _50
REMARK   20  A    between atoms: _50  and  _51
REMARK   21  A    between atoms: _50  and  _53
REMARK   22  A    between atoms: _53  and  _54
REMARK   23  A    between atoms: _57  and  _59
REMARK   24  A    between atoms: _59  and  _60
REMARK   25  A    between atoms: _59  and  _62
REMARK   26  A    between atoms: _62  and  _63
REMARK   27  A    between atoms: _66  and  _68
REMARK   28  A    between atoms: _68  and  _69
REMARK   29  A    between atoms: _71  and  _73
REMARK   30  A    between atoms: _73  and  _74
REMARK   31  A    between atoms: _77  and  _79
REMARK   32  A    between atoms: _79  and  _80
REMARK   33  A    between atoms: _79  and  _82
REMARK   34  A    between atoms: _82  and  _83
REMARK   35  A    between atoms: _86  and  _88
REMARK   36  A    between atoms: _88  and  _89
REMARK   37  A    between atoms: _88  and  _91
REMARK   38  A    between atoms: _91  and  _92
REMARK   39  A    between atoms: _97  and  _99
REMARK   40  A    between atoms: _99  and  _100
REMARK   41  A    between atoms: _99  and  _102
REMARK   42  A    between atoms: _102  and  _103
REMARK   43  A    between atoms: _106  and  _108
REMARK   44  A    between atoms: _108  and  _109
REMARK   45  A    between atoms: _108  and  _111
REMARK   46  A    between atoms: _111  and  _112
REMARK   47  A    between atoms: _115  and  _117
REMARK   48  A    between atoms: _117  and  _118
REMARK   49  A    between atoms: _117  and  _120
REMARK   50  A    between atoms: _120  and  _121
REMARK   51  A    between atoms: _121  and  _122
REMARK   52  A    between atoms: _124  and  _126
REMARK   53  A    between atoms: _126  and  _127
REMARK   54  A    between atoms: _126  and  _129
REMARK   55  A    between atoms: _132  and  _134
REMARK   56  A    between atoms: _134  and  _135
REMARK   57  A    between atoms: _137  and  _139
REMARK   58  A    between atoms: _139  and  _140
REMARK   59  A    between atoms: _142  and  _144
REMARK   60  A    between atoms: _144  and  _145
REMARK   61  A    between atoms: _144  and  _147
REMARK   62  A    between atoms: _147  and  _148
REMARK   63  A    between atoms: _151  and  _153
REMARK   64  A    between atoms: _153  and  _154
REMARK   65  A    between atoms: _156  and  _158
REMARK   66  A    between atoms: _158  and  _159
REMARK   67  A    between atoms: _161  and  _163
REMARK   68  A    between atoms: _163  and  _164
REMARK   69  A    between atoms: _163  and  _166
REMARK   70  A    between atoms: _166  and  _167
REMARK   71  A    between atoms: _173  and  _175
REMARK   72  A    between atoms: _175  and  _176
REMARK   73  A    between atoms: _175  and  _178
REMARK   74  A    between atoms: _178  and  _179
REMARK   75  A    between atoms: _182  and  _184
REMARK   76  A    between atoms: _184  and  _185
REMARK   77  A    between atoms: _184  and  _187
REMARK   78  A    between atoms: _187  and  _188
REMARK   79  A    between atoms: _191  and  _193
REMARK   80  A    between atoms: _193  and  _194
REMARK   81  A    between atoms: _193  and  _196
REMARK   82  A    between atoms: _196  and  _197
REMARK   83  A    between atoms: _201  and  _202
REMARK   84  A    between atoms: _207  and  _209
REMARK   85  A    between atoms: _209  and  _210
REMARK   86  A    between atoms: _209  and  _212
REMARK   87  A    between atoms: _215  and  _217
REMARK   88  A    between atoms: _217  and  _218
REMARK   89  A    between atoms: _217  and  _220
REMARK   90  A    between atoms: _220  and  _221
REMARK   91  A    between atoms: _226  and  _228
REMARK   92  A    between atoms: _228  and  _229
REMARK   93  A    between atoms: _228  and  _231
REMARK   94  A    between atoms: _234  and  _236
REMARK   95  A    between atoms: _236  and  _237
REMARK   96  A    between atoms: _239  and  _241
REMARK   97  A    between atoms: _241  and  _242
REMARK   98  A    between atoms: _241  and  _244
REMARK   99  A    between atoms: _244  and  _245
REMARK  100  A    between atoms: _245  and  _246
REMARK  101  A    between atoms: _246  and  _247
REMARK  102  A    between atoms: _256  and  _258
REMARK  103  A    between atoms: _258  and  _259
REMARK  104  A    between atoms: _258  and  _261
REMARK  105  A    between atoms: _261  and  _262
REMARK  106  A    between atoms: _265  and  _267
REMARK  107  A    between atoms: _267  and  _268
REMARK  108  A    between atoms: _267  and  _270
REMARK  109  A    between atoms: _270  and  _271
REMARK  110  A    between atoms: _271  and  _272
REMARK  111  A    between atoms: _272  and  _273
REMARK  112  A    between atoms: _282  and  _284
REMARK  113  A    between atoms: _284  and  _285
REMARK  114  A    between atoms: _284  and  _287
REMARK  115  A    between atoms: _287  and  _288
REMARK  116  A    between atoms: _294  and  _296
REMARK  117  A    between atoms: _296  and  _297
REMARK  118  A    between atoms: _296  and  _299
REMARK  119  A    between atoms: _299  and  _300
REMARK  120  A    between atoms: _303  and  _305
REMARK  121  A    between atoms: _305  and  _306
REMARK  122  A    between atoms: _305  and  _308
REMARK  123  A    between atoms: _308  and  _309
REMARK  124  A    between atoms: _312  and  _314
REMARK  125  A    between atoms: _314  and  _315
REMARK  126  A    between atoms: _314  and  _317
REMARK  127  A    between atoms: _317  and  _318
REMARK  128  A    between atoms: _321  and  _323
REMARK  129  A    between atoms: _323  and  _324
REMARK  130  A    between atoms: _323  and  _326
REMARK  131  A    between atoms: _326  and  _327
REMARK  132  A    between atoms: _330  and  _332
REMARK  133  A    between atoms: _332  and  _333
REMARK  134  A    between atoms: _335  and  _337
REMARK  135  A    between atoms: _337  and  _338
REMARK  136  A    between atoms: _341  and  _343
REMARK  137  A    between atoms: _343  and  _344
REMARK  138  A    between atoms: _343  and  _346
REMARK  139  A    between atoms: _346  and  _347
REMARK  140  A    between atoms: _350  and  _352
REMARK  141  A    between atoms: _352  and  _353
REMARK  142  A    between atoms: _352  and  _355
REMARK  143  A    between atoms: _355  and  _356
REMARK  144  A    between atoms: _361  and  _363
REMARK  145  A    between atoms: _363  and  _364
REMARK  146  A    between atoms: _363  and  _366
REMARK  147  A    between atoms: _366  and  _367
REMARK  148  A    between atoms: _370  and  _372
REMARK  149  A    between atoms: _372  and  _373
REMARK  150  A    between atoms: _372  and  _375
REMARK  151  A    between atoms: _375  and  _376
REMARK  152  A    between atoms: _379  and  _381
REMARK  153  A    between atoms: _381  and  _382
REMARK  154  A    between atoms: _381  and  _384
REMARK  155  A    between atoms: _384  and  _385
REMARK  156  A    between atoms: _385  and  _386
REMARK  157  A    between atoms: _388  and  _390
REMARK  158  A    between atoms: _390  and  _391
REMARK  159  A    between atoms: _390  and  _393
REMARK  160  A    between atoms: _396  and  _398
REMARK  161  A    between atoms: _398  and  _399
REMARK  162  A    between atoms: _401  and  _403
REMARK  163  A    between atoms: _403  and  _404
REMARK  164  A    between atoms: _406  and  _408
REMARK  165  A    between atoms: _408  and  _409
REMARK  166  A    between atoms: _408  and  _411
REMARK  167  A    between atoms: _411  and  _412
REMARK  168  A    between atoms: _415  and  _417
REMARK  169  A    between atoms: _417  and  _418
REMARK  170  A    between atoms: _420  and  _422
REMARK  171  A    between atoms: _422  and  _423
REMARK  172  A    between atoms: _425  and  _427
REMARK  173  A    between atoms: _427  and  _428
REMARK  174  A    between atoms: _427  and  _430
REMARK  175  A    between atoms: _430  and  _431
REMARK  176  A    between atoms: _437  and  _439
REMARK  177  A    between atoms: _439  and  _440
REMARK  178  A    between atoms: _439  and  _442
REMARK  179  A    between atoms: _442  and  _443
REMARK  180  A    between atoms: _446  and  _448
REMARK  181  A    between atoms: _448  and  _449
REMARK  182  A    between atoms: _448  and  _451
REMARK  183  A    between atoms: _454  and  _456
REMARK  184  A    between atoms: _456  and  _457
REMARK  185  A    between atoms: _456  and  _459
REMARK  186  A    between atoms: _459  and  _460
REMARK  187  A    between atoms: _463  and  _465
REMARK  188  A    between atoms: _465  and  _466
REMARK  189  A    between atoms: _465  and  _468
REMARK  190  A    between atoms: _468  and  _469
REMARK  191  A    between atoms: _473  and  _474
REMARK  192  A    between atoms: _479  and  _481
REMARK  193  A    between atoms: _481  and  _482
REMARK  194  A    between atoms: _481  and  _484
REMARK  195  A    between atoms: _487  and  _489
REMARK  196  A    between atoms: _489  and  _490
REMARK  197  A    between atoms: _489  and  _492
REMARK  198  A    between atoms: _492  and  _493
REMARK  199  A    between atoms: _498  and  _500
REMARK  200  A    between atoms: _500  and  _501
REMARK  201  A    between atoms: _500  and  _503
REMARK  202  A    between atoms: _506  and  _508
REMARK  203  A    between atoms: _508  and  _509
REMARK  204  A    between atoms: _508  and  _511
REMARK  205  A    between atoms: _511  and  _512
REMARK  206  A    between atoms: _515  and  _517
REMARK  207  A    between atoms: _517  and  _518
REMARK  208  A    between atoms: _520  and  _522
REMARK  209  A    between atoms: _522  and  _523
REMARK  210  A    between atoms: _522  and  _525
REMARK  211  A    between atoms: _525  and  _526
REMARK  212  A    between atoms: _526  and  _527
REMARK  213  A    between atoms: _527  and  _528
REMARK  214  A    between atoms: _537  and  _539
REMARK  215  A    between atoms: _539  and  _540
REMARK  216  A    between atoms: _539  and  _542
REMARK  217  A    between atoms: _542  and  _543
REMARK                            x       y       z     vdW  Elec       q    Type
REMARK                         _______ _______ _______ _____ _____    ______ ____
ROOT
ATOM      1  O   HOH     1     -14.339  -4.333   9.436  0.00  0.00    +0.000 OA
ENDROOT
TORSDOF 0
REMARK  Name = ../refined-set-2016/4yhq/4yhq_pocket.pdb
REMARK  217 active torsions:
REMARK  status: ('A' for Active; 'I' for Inactive)
REMARK    1  A    between atoms: _1  and  _3
REMARK    2  A    between atoms: _3  and  _4
REMARK    3  A    between atoms: _3  and  _6
REMARK    4  A    between atoms: _6  and  _7
REMARK    5  A    between atoms: _7  and  _8
REMARK    6  A    between atoms: _8  and  _9
REMARK    7  A    between atoms: _18  and  _20
REMARK    8  A    between atoms: _20  and  _21
REMARK    9  A    between atoms: _20  and  _23
REMARK   10  A    between atoms: _23  and  _24
REMARK   11  A    between atoms: _30  and  _32
REMARK   12  A    between atoms: _32  and  _33
REMARK   13  A    between atoms: _32  and  _35
REMARK   14  A    between atoms: _35  and  _36
REMARK   15  A    between atoms: _39  and  _41
REMARK   16  A    between atoms: _41  and  _42
REMARK   17  A    between atoms: _41  and  _44
REMARK   18  A    between atoms: _44  and  _45
REMARK   19  A    between atoms: _48  and  _50
REMARK   20  A    between atoms: _50  and  _51
REMARK   21  A    between atoms: _50  and  _53
REMARK   22  A    between atoms: _53  and  _54
REMARK   23  A    between atoms: _57  and  _59
REMARK   24  A    between atoms: _59  and  _60
REMARK   25  A    between atoms: _59  and  _62
REMARK   26  A    between atoms: _62  and  _63
REMARK   27  A    between atoms: _66  and  _68
REMARK   28  A    between atoms: _68  and  _69
REMARK   29  A    between atoms: _71  and  _73
REMARK   30  A    between atoms: _73  and  _74
REMARK   31  A    between atoms: _77  and  _79
REMARK   32  A    between atoms: _79  and  _80
REMARK   33  A    between atoms: _79  and  _82
REMARK   34  A    between atoms: _82  and  _83
REMARK   35  A    between atoms: _86  and  _88
REMARK   36  A    between atoms: _88  and  _89
REMARK   37  A    between atoms: _88  and  _91
REMARK   38  A    between atoms: _91  and  _92
REMARK   39  A    between atoms: _97  and  _99
REMARK   40  A    between atoms: _99  and  _100
REMARK   41  A    between atoms: _99  and  _102
REMARK   42  A    between atoms: _102  and  _103
REMARK   43  A    between atoms: _106  and  _108
REMARK   44  A    between atoms: _108  and  _109
REMARK   45  A    between atoms: _108  and  _111
REMARK   46  A    between atoms: _111  and  _112
REMARK   47  A    between atoms: _115  and  _117
REMARK   48  A    between atoms: _117  and  _118
REMARK   49  A    between atoms: _117  and  _120
REMARK   50  A    between atoms: _120  and  _121
REMARK   51  A    between atoms: _121  and  _122
REMARK   52  A    between atoms: _124  and  _126
REMARK   53  A    between atoms: _126  and  _127
REMARK   54  A    between atoms: _126  and  _129
REMARK   55  A    between atoms: _132  and  _134
REMARK   56  A    between atoms: _134  and  _135
REMARK   57  A    between atoms: _137  and  _139
REMARK   58  A    between atoms: _139  and  _140
REMARK   59  A    between atoms: _142  and  _144
REMARK   60  A    between atoms: _144  and  _145
REMARK   61  A    between atoms: _144  and  _147
REMARK   62  A    between atoms: _147  and  _148
REMARK   63  A    between atoms: _151  and  _153
REMARK   64  A    between atoms: _153  and  _154
REMARK   65  A    between atoms: _156  and  _158
REMARK   66  A    between atoms: _158  and  _159
REMARK   67  A    between atoms: _161  and  _163
REMARK   68  A    between atoms: _163  and  _164
REMARK   69  A    between atoms: _163  and  _166
REMARK   70  A    between atoms: _166  and  _167
REMARK   71  A    between atoms: _173  and  _175
REMARK   72  A    between atoms: _175  and  _176
REMARK   73  A    between atoms: _175  and  _178
REMARK   74  A    between atoms: _178  and  _179
REMARK   75  A    between atoms: _182  and  _184
REMARK   76  A    between atoms: _184  and  _185
REMARK   77  A    between atoms: _184  and  _187
REMARK   78  A    between atoms: _187  and  _188
REMARK   79  A    between atoms: _191  and  _193
REMARK   80  A    between atoms: _193  and  _194
REMARK   81  A    between atoms: _193  and  _196
REMARK   82  A    between atoms: _196  and  _197
REMARK   83  A    between atoms: _201  and  _202
REMARK   84  A    between atoms: _207  and  _209
REMARK   85  A    between atoms: _209  and  _210
REMARK   86  A    between atoms: _209  and  _212
REMARK   87  A    between atoms: _215  and  _217
REMARK   88  A    between atoms: _217  and  _218
REMARK   89  A    between atoms: _217  and  _220
REMARK   90  A    between atoms: _220  and  _221
REMARK   91  A    between atoms: _226  and  _228
REMARK   92  A    between atoms: _228  and  _229
REMARK   93  A    between atoms: _228  and  _231
REMARK   94  A    between atoms: _234  and  _236
REMARK   95  A    between atoms: _236  and  _237
REMARK   96  A    between atoms: _239  and  _241
REMARK   97  A    between atoms: _241  and  _242
REMARK   98  A    between atoms: _241  and  _244
REMARK   99  A    between atoms: _244  and  _245
REMARK  100  A    between atoms: _245  and  _246
REMARK  101  A    between atoms: _246  and  _247
REMARK  102  A    between atoms: _256  and  _258
REMARK  103  A    between atoms: _258  and  _259
REMARK  104  A    between atoms: _258  and  _261
REMARK  105  A    between atoms: _261  and  _262
REMARK  106  A    between atoms: _265  and  _267
REMARK  107  A    between atoms: _267  and  _268
REMARK  108  A    between atoms: _267  and  _270
REMARK  109  A    between atoms: _270  and  _271
REMARK  110  A    between atoms: _271  and  _272
REMARK  111  A    between atoms: _272  and  _273
REMARK  112  A    between atoms: _282  and  _284
REMARK  113  A    between atoms: _284  and  _285
REMARK  114  A    between atoms: _284  and  _287
REMARK  115  A    between atoms: _287  and  _288
REMARK  116  A    between atoms: _294  and  _296
REMARK  117  A    between atoms: _296  and  _297
REMARK  118  A    between atoms: _296  and  _299
REMARK  119  A    between atoms: _299  and  _300
REMARK  120  A    between atoms: _303  and  _305
REMARK  121  A    between atoms: _305  and  _306
REMARK  122  A    between atoms: _305  and  _308
REMARK  123  A    between atoms: _308  and  _309
REMARK  124  A    between atoms: _312  and  _314
REMARK  125  A    between atoms: _314  and  _315
REMARK  126  A    between atoms: _314  and  _317
REMARK  127  A    between atoms: _317  and  _318
REMARK  128  A    between atoms: _321  and  _323
REMARK  129  A    between atoms: _323  and  _324
REMARK  130  A    between atoms: _323  and  _326
REMARK  131  A    between atoms: _326  and  _327
REMARK  132  A    between atoms: _330  and  _332
REMARK  133  A    between atoms: _332  and  _333
REMARK  134  A    between atoms: _335  and  _337
REMARK  135  A    between atoms: _337  and  _338
REMARK  136  A    between atoms: _341  and  _343
REMARK  137  A    between atoms: _343  and  _344
REMARK  138  A    between atoms: _343  and  _346
REMARK  139  A    between atoms: _346  and  _347
REMARK  140  A    between atoms: _350  and  _352
REMARK  141  A    between atoms: _352  and  _353
REMARK  142  A    between atoms: _352  and  _355
REMARK  143  A    between atoms: _355  and  _356
REMARK  144  A    between atoms: _361  and  _363
REMARK  145  A    between atoms: _363  and  _364
REMARK  146  A    between atoms: _363  and  _366
REMARK  147  A    between atoms: _366  and  _367
REMARK  148  A    between atoms: _370  and  _372
REMARK  149  A    between atoms: _372  and  _373
REMARK  150  A    between atoms: _372  and  _375
REMARK  151  A    between atoms: _375  and  _376
REMARK  152  A    between atoms: _379  and  _381
REMARK  153  A    between atoms: _381  and  _382
REMARK  154  A    between atoms: _381  and  _384
REMARK  155  A    between atoms: _384  and  _385
REMARK  156  A    between atoms: _385  and  _386
REMARK  157  A    between atoms: _388  and  _390
REMARK  158  A    between atoms: _390  and  _391
REMARK  159  A    between atoms: _390  and  _393
REMARK  160  A    between atoms: _396  and  _398
REMARK  161  A    between atoms: _398  and  _399
REMARK  162  A    between atoms: _401  and  _403
REMARK  163  A    between atoms: _403  and  _404
REMARK  164  A    between atoms: _406  and  _408
REMARK  165  A    between atoms: _408  and  _409
REMARK  166  A    between atoms: _408  and  _411
REMARK  167  A    between atoms: _411  and  _412
REMARK  168  A    between atoms: _415  and  _417
REMARK  169  A    between atoms: _417  and  _418
REMARK  170  A    between atoms: _420  and  _422
REMARK  171  A    between atoms: _422  and  _423
REMARK  172  A    between atoms: _425  and  _427
REMARK  173  A    between atoms: _427  and  _428
REMARK  174  A    between atoms: _427  and  _430
REMARK  175  A    between atoms: _430  and  _431
REMARK  176  A    between atoms: _437  and  _439
REMARK  177  A    between atoms: _439  and  _440
REMARK  178  A    between atoms: _439  and  _442
REMARK  179  A    between atoms: _442  and  _443
REMARK  180  A    between atoms: _446  and  _448
REMARK  181  A    between atoms: _448  and  _449
REMARK  182  A    between atoms: _448  and  _451
REMARK  183  A    between atoms: _454  and  _456
REMARK  184  A    between atoms: _456  and  _457
REMARK  185  A    between atoms: _456  and  _459
REMARK  186  A    between atoms: _459  and  _460
REMARK  187  A    between atoms: _463  and  _465
REMARK  188  A    between atoms: _465  and  _466
REMARK  189  A    between atoms: _465  and  _468
REMARK  190  A    between atoms: _468  and  _469
REMARK  191  A    between atoms: _473  and  _474
REMARK  192  A    between atoms: _479  and  _481
REMARK  193  A    between atoms: _481  and  _482
REMARK  194  A    between atoms: _481  and  _484
REMARK  195  A    between atoms: _487  and  _489
REMARK  196  A    between atoms: _489  and  _490
REMARK  197  A    between atoms: _489  and  _492
REMARK  198  A    between atoms: _492  and  _493
REMARK  199  A    between atoms: _498  and  _500
REMARK  200  A    between atoms: _500  and  _501
REMARK  201  A    between atoms: _500  and  _503
REMARK  202  A    between atoms: _506  and  _508
REMARK  203  A    between atoms: _508  and  _509
REMARK  204  A    between atoms: _508  and  _511
REMARK  205  A    between atoms: _511  and  _512
REMARK  206  A    between atoms: _515  and  _517
REMARK  207  A    between atoms: _517  and  _518
REMARK  208  A    between atoms: _520  and  _522
REMARK  209  A    between atoms: _522  and  _523
REMARK  210  A    between atoms: _522  and  _525
REMARK  211  A    between atoms: _525  and  _526
REMARK  212  A    between atoms: _526  and  _527
REMARK  213  A    between atoms: _527  and  _528
REMARK  214  A    between atoms: _537  and  _539
REMARK  215  A    between atoms: _539  and  _540
REMARK  216  A    between atoms: _539  and  _542
REMARK  217  A    between atoms: _542  and  _543
REMARK                            x       y       z     vdW  Elec       q    Type
REMARK                         _______ _______ _______ _____ _____    ______ ____
ROOT
ATOM      1  O   HOH     1     -19.059   3.338  -3.585  0.00  0.00    +0.000 OA
ENDROOT
TORSDOF 0
REMARK  Name = ../refined-set-2016/4yhq/4yhq_pocket.pdb
REMARK  217 active torsions:
REMARK  status: ('A' for Active; 'I' for Inactive)
REMARK    1  A    between atoms: _1  and  _3
REMARK    2  A    between atoms: _3  and  _4
REMARK    3  A    between atoms: _3  and  _6
REMARK    4  A    between atoms: _6  and  _7
REMARK    5  A    between atoms: _7  and  _8
REMARK    6  A    between atoms: _8  and  _9
REMARK    7  A    between atoms: _18  and  _20
REMARK    8  A    between atoms: _20  and  _21
REMARK    9  A    between atoms: _20  and  _23
REMARK   10  A    between atoms: _23  and  _24
REMARK   11  A    between atoms: _30  and  _32
REMARK   12  A    between atoms: _32  and  _33
REMARK   13  A    between atoms: _32  and  _35
REMARK   14  A    between atoms: _35  and  _36
REMARK   15  A    between atoms: _39  and  _41
REMARK   16  A    between atoms: _41  and  _42
REMARK   17  A    between atoms: _41  and  _44
REMARK   18  A    between atoms: _44  and  _45
REMARK   19  A    between atoms: _48  and  _50
REMARK   20  A    between atoms: _50  and  _51
REMARK   21  A    between atoms: _50  and  _53
REMARK   22  A    between atoms: _53  and  _54
REMARK   23  A    between atoms: _57  and  _59
REMARK   24  A    between atoms: _59  and  _60
REMARK   25  A    between atoms: _59  and  _62
REMARK   26  A    between atoms: _62  and  _63
REMARK   27  A    between atoms: _66  and  _68
REMARK   28  A    between atoms: _68  and  _69
REMARK   29  A    between atoms: _71  and  _73
REMARK   30  A    between atoms: _73  and  _74
REMARK   31  A    between atoms: _77  and  _79
REMARK   32  A    between atoms: _79  and  _80
REMARK   33  A    between atoms: _79  and  _82
REMARK   34  A    between atoms: _82  and  _83
REMARK   35  A    between atoms: _86  and  _88
REMARK   36  A    between atoms: _88  and  _89
REMARK   37  A    between atoms: _88  and  _91
REMARK   38  A    between atoms: _91  and  _92
REMARK   39  A    between atoms: _97  and  _99
REMARK   40  A    between atoms: _99  and  _100
REMARK   41  A    between atoms: _99  and  _102
REMARK   42  A    between atoms: _102  and  _103
REMARK   43  A    between atoms: _106  and  _108
REMARK   44  A    between atoms: _108  and  _109
REMARK   45  A    between atoms: _108  and  _111
REMARK   46  A    between atoms: _111  and  _112
REMARK   47  A    between atoms: _115  and  _117
REMARK   48  A    between atoms: _117  and  _118
REMARK   49  A    between atoms: _117  and  _120
REMARK   50  A    between atoms: _120  and  _121
REMARK   51  A    between atoms: _121  and  _122
REMARK   52  A    between atoms: _124  and  _126
REMARK   53  A    between atoms: _126  and  _127
REMARK   54  A    between atoms: _126  and  _129
REMARK   55  A    between atoms: _132  and  _134
REMARK   56  A    between atoms: _134  and  _135
REMARK   57  A    between atoms: _137  and  _139
REMARK   58  A    between atoms: _139  and  _140
REMARK   59  A    between atoms: _142  and  _144
REMARK   60  A    between atoms: _144  and  _145
REMARK   61  A    between atoms: _144  and  _147
REMARK   62  A    between atoms: _147  and  _148
REMARK   63  A    between atoms: _151  and  _153
REMARK   64  A    between atoms: _153  and  _154
REMARK   65  A    between atoms: _156  and  _158
REMARK   66  A    between atoms: _158  and  _159
REMARK   67  A    between atoms: _161  and  _163
REMARK   68  A    between atoms: _163  and  _164
REMARK   69  A    between atoms: _163  and  _166
REMARK   70  A    between atoms: _166  and  _167
REMARK   71  A    between atoms: _173  and  _175
REMARK   72  A    between atoms: _175  and  _176
REMARK   73  A    between atoms: _175  and  _178
REMARK   74  A    between atoms: _178  and  _179
REMARK   75  A    between atoms: _182  and  _184
REMARK   76  A    between atoms: _184  and  _185
REMARK   77  A    between atoms: _184  and  _187
REMARK   78  A    between atoms: _187  and  _188
REMARK   79  A    between atoms: _191  and  _193
REMARK   80  A    between atoms: _193  and  _194
REMARK   81  A    between atoms: _193  and  _196
REMARK   82  A    between atoms: _196  and  _197
REMARK   83  A    between atoms: _201  and  _202
REMARK   84  A    between atoms: _207  and  _209
REMARK   85  A    between atoms: _209  and  _210
REMARK   86  A    between atoms: _209  and  _212
REMARK   87  A    between atoms: _215  and  _217
REMARK   88  A    between atoms: _217  and  _218
REMARK   89  A    between atoms: _217  and  _220
REMARK   90  A    between atoms: _220  and  _221
REMARK   91  A    between atoms: _226  and  _228
REMARK   92  A    between atoms: _228  and  _229
REMARK   93  A    between atoms: _228  and  _231
REMARK   94  A    between atoms: _234  and  _236
REMARK   95  A    between atoms: _236  and  _237
REMARK   96  A    between atoms: _239  and  _241
REMARK   97  A    between atoms: _241  and  _242
REMARK   98  A    between atoms: _241  and  _244
REMARK   99  A    between atoms: _244  and  _245
REMARK  100  A    between atoms: _245  and  _246
REMARK  101  A    between atoms: _246  and  _247
REMARK  102  A    between atoms: _256  and  _258
REMARK  103  A    between atoms: _258  and  _259
REMARK  104  A    between atoms: _258  and  _261
REMARK  105  A    between atoms: _261  and  _262
REMARK  106  A    between atoms: _265  and  _267
REMARK  107  A    between atoms: _267  and  _268
REMARK  108  A    between atoms: _267  and  _270
REMARK  109  A    between atoms: _270  and  _271
REMARK  110  A    between atoms: _271  and  _272
REMARK  111  A    between atoms: _272  and  _273
REMARK  112  A    between atoms: _282  and  _284
REMARK  113  A    between atoms: _284  and  _285
REMARK  114  A    between atoms: _284  and  _287
REMARK  115  A    between atoms: _287  and  _288
REMARK  116  A    between atoms: _294  and  _296
REMARK  117  A    between atoms: _296  and  _297
REMARK  118  A    between atoms: _296  and  _299
REMARK  119  A    between atoms: _299  and  _300
REMARK  120  A    between atoms: _303  and  _305
REMARK  121  A    between atoms: _305  and  _306
REMARK  122  A    between atoms: _305  and  _308
REMARK  123  A    between atoms: _308  and  _309
REMARK  124  A    between atoms: _312  and  _314
REMARK  125  A    between atoms: _314  and  _315
REMARK  126  A    between atoms: _314  and  _317
REMARK  127  A    between atoms: _317  and  _318
REMARK  128  A    between atoms: _321  and  _323
REMARK  129  A    between atoms: _323  and  _324
REMARK  130  A    between atoms: _323  and  _326
REMARK  131  A    between atoms: _326  and  _327
REMARK  132  A    between atoms: _330  and  _332
REMARK  133  A    between atoms: _332  and  _333
REMARK  134  A    between atoms: _335  and  _337
REMARK  135  A    between atoms: _337  and  _338
REMARK  136  A    between atoms: _341  and  _343
REMARK  137  A    between atoms: _343  and  _344
REMARK  138  A    between atoms: _343  and  _346
REMARK  139  A    between atoms: _346  and  _347
REMARK  140  A    between atoms: _350  and  _352
REMARK  141  A    between atoms: _352  and  _353
REMARK  142  A    between atoms: _352  and  _355
REMARK  143  A    between atoms: _355  and  _356
REMARK  144  A    between atoms: _361  and  _363
REMARK  145  A    between atoms: _363  and  _364
REMARK  146  A    between atoms: _363  and  _366
REMARK  147  A    between atoms: _366  and  _367
REMARK  148  A    between atoms: _370  and  _372
REMARK  149  A    between atoms: _372  and  _373
REMARK  150  A    between atoms: _372  and  _375
REMARK  151  A    between atoms: _375  and  _376
REMARK  152  A    between atoms: _379  and  _381
REMARK  153  A    between atoms: _381  and  _382
REMARK  154  A    between atoms: _381  and  _384
REMARK  155  A    between atoms: _384  and  _385
REMARK  156  A    between atoms: _385  and  _386
REMARK  157  A    between atoms: _388  and  _390
REMARK  158  A    between atoms: _390  and  _391
REMARK  159  A    between atoms: _390  and  _393
REMARK  160  A    between atoms: _396  and  _398
REMARK  161  A    between atoms: _398  and  _399
REMARK  162  A    between atoms: _401  and  _403
REMARK  163  A    between atoms: _403  and  _404
REMARK  164  A    between atoms: _406  and  _408
REMARK  165  A    between atoms: _408  and  _409
REMARK  166  A    between atoms: _408  and  _411
REMARK  167  A    between atoms: _411  and  _412
REMARK  168  A    between atoms: _415  and  _417
REMARK  169  A    between atoms: _417  and  _418
REMARK  170  A    between atoms: _420  and  _422
REMARK  171  A    between atoms: _422  and  _423
REMARK  172  A    between atoms: _425  and  _427
REMARK  173  A    between atoms: _427  and  _428
REMARK  174  A    between atoms: _427  and  _430
REMARK  175  A    between atoms: _430  and  _431
REMARK  176  A    between atoms: _437  and  _439
REMARK  177  A    between atoms: _439  and  _440
REMARK  178  A    between atoms: _439  and  _442
REMARK  179  A    between atoms: _442  and  _443
REMARK  180  A    between atoms: _446  and  _448
REMARK  181  A    between atoms: _448  and  _449
REMARK  182  A    between atoms: _448  and  _451
REMARK  183  A    between atoms: _454  and  _456
REMARK  184  A    between atoms: _456  and  _457
REMARK  185  A    between atoms: _456  and  _459
REMARK  186  A    between atoms: _459  and  _460
REMARK  187  A    between atoms: _463  and  _465
REMARK  188  A    between atoms: _465  and  _466
REMARK  189  A    between atoms: _465  and  _468
REMARK  190  A    between atoms: _468  and  _469
REMARK  191  A    between atoms: _473  and  _474
REMARK  192  A    between atoms: _479  and  _481
REMARK  193  A    between atoms: _481  and  _482
REMARK  194  A    between atoms: _481  and  _484
REMARK  195  A    between atoms: _487  and  _489
REMARK  196  A    between atoms: _489  and  _490
REMARK  197  A    between atoms: _489  and  _492
REMARK  198  A    between atoms: _492  and  _493
REMARK  199  A    between atoms: _498  and  _500
REMARK  200  A    between atoms: _500  and  _501
REMARK  201  A    between atoms: _500  and  _503
REMARK  202  A    between atoms: _506  and  _508
REMARK  203  A    between atoms: _508  and  _509
REMARK  204  A    between atoms: _508  and  _511
REMARK  205  A    between atoms: _511  and  _512
REMARK  206  A    between atoms: _515  and  _517
REMARK  207  A    between atoms: _517  and  _518
REMARK  208  A    between atoms: _520  and  _522
REMARK  209  A    between atoms: _522  and  _523
REMARK  210  A    between atoms: _522  and  _525
REMARK  211  A    between atoms: _525  and  _526
REMARK  212  A    between atoms: _526  and  _527
REMARK  213  A    between atoms: _527  and  _528
REMARK  214  A    between atoms: _537  and  _539
REMARK  215  A    between atoms: _539  and  _540
REMARK  216  A    between atoms: _539  and  _542
REMARK  217  A    between atoms: _542  and  _543
REMARK                            x       y       z     vdW  Elec       q    Type
REMARK                         _______ _______ _______ _____ _____    ______ ____
ROOT
ATOM      1  O   HOH     1     -19.064  -3.289   6.752  0.00  0.00    +0.000 OA
ENDROOT
TORSDOF 0
REMARK  Name = ../refined-set-2016/4yhq/4yhq_pocket.pdb
REMARK  217 active torsions:
REMARK  status: ('A' for Active; 'I' for Inactive)
REMARK    1  A    between atoms: _1  and  _3
REMARK    2  A    between atoms: _3  and  _4
REMARK    3  A    between atoms: _3  and  _6
REMARK    4  A    between atoms: _6  and  _7
REMARK    5  A    between atoms: _7  and  _8
REMARK    6  A    between atoms: _8  and  _9
REMARK    7  A    between atoms: _18  and  _20
REMARK    8  A    between atoms: _20  and  _21
REMARK    9  A    between atoms: _20  and  _23
REMARK   10  A    between atoms: _23  and  _24
REMARK   11  A    between atoms: _30  and  _32
REMARK   12  A    between atoms: _32  and  _33
REMARK   13  A    between atoms: _32  and  _35
REMARK   14  A    between atoms: _35  and  _36
REMARK   15  A    between atoms: _39  and  _41
REMARK   16  A    between atoms: _41  and  _42
REMARK   17  A    between atoms: _41  and  _44
REMARK   18  A    between atoms: _44  and  _45
REMARK   19  A    between atoms: _48  and  _50
REMARK   20  A    between atoms: _50  and  _51
REMARK   21  A    between atoms: _50  and  _53
REMARK   22  A    between atoms: _53  and  _54
REMARK   23  A    between atoms: _57  and  _59
REMARK   24  A    between atoms: _59  and  _60
REMARK   25  A    between atoms: _59  and  _62
REMARK   26  A    between atoms: _62  and  _63
REMARK   27  A    between atoms: _66  and  _68
REMARK   28  A    between atoms: _68  and  _69
REMARK   29  A    between atoms: _71  and  _73
REMARK   30  A    between atoms: _73  and  _74
REMARK   31  A    between atoms: _77  and  _79
REMARK   32  A    between atoms: _79  and  _80
REMARK   33  A    between atoms: _79  and  _82
REMARK   34  A    between atoms: _82  and  _83
REMARK   35  A    between atoms: _86  and  _88
REMARK   36  A    between atoms: _88  and  _89
REMARK   37  A    between atoms: _88  and  _91
REMARK   38  A    between atoms: _91  and  _92
REMARK   39  A    between atoms: _97  and  _99
REMARK   40  A    between atoms: _99  and  _100
REMARK   41  A    between atoms: _99  and  _102
REMARK   42  A    between atoms: _102  and  _103
REMARK   43  A    between atoms: _106  and  _108
REMARK   44  A    between atoms: _108  and  _109
REMARK   45  A    between atoms: _108  and  _111
REMARK   46  A    between atoms: _111  and  _112
REMARK   47  A    between atoms: _115  and  _117
REMARK   48  A    between atoms: _117  and  _118
REMARK   49  A    between atoms: _117  and  _120
REMARK   50  A    between atoms: _120  and  _121
REMARK   51  A    between atoms: _121  and  _122
REMARK   52  A    between atoms: _124  and  _126
REMARK   53  A    between atoms: _126  and  _127
REMARK   54  A    between atoms: _126  and  _129
REMARK   55  A    between atoms: _132  and  _134
REMARK   56  A    between atoms: _134  and  _135
REMARK   57  A    between atoms: _137  and  _139
REMARK   58  A    between atoms: _139  and  _140
REMARK   59  A    between atoms: _142  and  _144
REMARK   60  A    between atoms: _144  and  _145
REMARK   61  A    between atoms: _144  and  _147
REMARK   62  A    between atoms: _147  and  _148
REMARK   63  A    between atoms: _151  and  _153
REMARK   64  A    between atoms: _153  and  _154
REMARK   65  A    between atoms: _156  and  _158
REMARK   66  A    between atoms: _158  and  _159
REMARK   67  A    between atoms: _161  and  _163
REMARK   68  A    between atoms: _163  and  _164
REMARK   69  A    between atoms: _163  and  _166
REMARK   70  A    between atoms: _166  and  _167
REMARK   71  A    between atoms: _173  and  _175
REMARK   72  A    between atoms: _175  and  _176
REMARK   73  A    between atoms: _175  and  _178
REMARK   74  A    between atoms: _178  and  _179
REMARK   75  A    between atoms: _182  and  _184
REMARK   76  A    between atoms: _184  and  _185
REMARK   77  A    between atoms: _184  and  _187
REMARK   78  A    between atoms: _187  and  _188
REMARK   79  A    between atoms: _191  and  _193
REMARK   80  A    between atoms: _193  and  _194
REMARK   81  A    between atoms: _193  and  _196
REMARK   82  A    between atoms: _196  and  _197
REMARK   83  A    between atoms: _201  and  _202
REMARK   84  A    between atoms: _207  and  _209
REMARK   85  A    between atoms: _209  and  _210
REMARK   86  A    between atoms: _209  and  _212
REMARK   87  A    between atoms: _215  and  _217
REMARK   88  A    between atoms: _217  and  _218
REMARK   89  A    between atoms: _217  and  _220
REMARK   90  A    between atoms: _220  and  _221
REMARK   91  A    between atoms: _226  and  _228
REMARK   92  A    between atoms: _228  and  _229
REMARK   93  A    between atoms: _228  and  _231
REMARK   94  A    between atoms: _234  and  _236
REMARK   95  A    between atoms: _236  and  _237
REMARK   96  A    between atoms: _239  and  _241
REMARK   97  A    between atoms: _241  and  _242
REMARK   98  A    between atoms: _241  and  _244
REMARK   99  A    between atoms: _244  and  _245
REMARK  100  A    between atoms: _245  and  _246
REMARK  101  A    between atoms: _246  and  _247
REMARK  102  A    between atoms: _256  and  _258
REMARK  103  A    between atoms: _258  and  _259
REMARK  104  A    between atoms: _258  and  _261
REMARK  105  A    between atoms: _261  and  _262
REMARK  106  A    between atoms: _265  and  _267
REMARK  107  A    between atoms: _267  and  _268
REMARK  108  A    between atoms: _267  and  _270
REMARK  109  A    between atoms: _270  and  _271
REMARK  110  A    between atoms: _271  and  _272
REMARK  111  A    between atoms: _272  and  _273
REMARK  112  A    between atoms: _282  and  _284
REMARK  113  A    between atoms: _284  and  _285
REMARK  114  A    between atoms: _284  and  _287
REMARK  115  A    between atoms: _287  and  _288
REMARK  116  A    between atoms: _294  and  _296
REMARK  117  A    between atoms: _296  and  _297
REMARK  118  A    between atoms: _296  and  _299
REMARK  119  A    between atoms: _299  and  _300
REMARK  120  A    between atoms: _303  and  _305
REMARK  121  A    between atoms: _305  and  _306
REMARK  122  A    between atoms: _305  and  _308
REMARK  123  A    between atoms: _308  and  _309
REMARK  124  A    between atoms: _312  and  _314
REMARK  125  A    between atoms: _314  and  _315
REMARK  126  A    between atoms: _314  and  _317
REMARK  127  A    between atoms: _317  and  _318
REMARK  128  A    between atoms: _321  and  _323
REMARK  129  A    between atoms: _323  and  _324
REMARK  130  A    between atoms: _323  and  _326
REMARK  131  A    between atoms: _326  and  _327
REMARK  132  A    between atoms: _330  and  _332
REMARK  133  A    between atoms: _332  and  _333
REMARK  134  A    between atoms: _335  and  _337
REMARK  135  A    between atoms: _337  and  _338
REMARK  136  A    between atoms: _341  and  _343
REMARK  137  A    between atoms: _343  and  _344
REMARK  138  A    between atoms: _343  and  _346
REMARK  139  A    between atoms: _346  and  _347
REMARK  140  A    between atoms: _350  and  _352
REMARK  141  A    between atoms: _352  and  _353
REMARK  142  A    between atoms: _352  and  _355
REMARK  143  A    between atoms: _355  and  _356
REMARK  144  A    between atoms: _361  and  _363
REMARK  145  A    between atoms: _363  and  _364
REMARK  146  A    between atoms: _363  and  _366
REMARK  147  A    between atoms: _366  and  _367
REMARK  148  A    between atoms: _370  and  _372
REMARK  149  A    between atoms: _372  and  _373
REMARK  150  A    between atoms: _372  and  _375
REMARK  151  A    between atoms: _375  and  _376
REMARK  152  A    between atoms: _379  and  _381
REMARK  153  A    between atoms: _381  and  _382
REMARK  154  A    between atoms: _381  and  _384
REMARK  155  A    between atoms: _384  and  _385
REMARK  156  A    between atoms: _385  and  _386
REMARK  157  A    between atoms: _388  and  _390
REMARK  158  A    between atoms: _390  and  _391
REMARK  159  A    between atoms: _390  and  _393
REMARK  160  A    between atoms: _396  and  _398
REMARK  161  A    between atoms: _398  and  _399
REMARK  162  A    between atoms: _401  and  _403
REMARK  163  A    between atoms: _403  and  _404
REMARK  164  A    between atoms: _406  and  _408
REMARK  165  A    between atoms: _408  and  _409
REMARK  166  A    between atoms: _408  and  _411
REMARK  167  A    between atoms: _411  and  _412
REMARK  168  A    between atoms: _415  and  _417
REMARK  169  A    between atoms: _417  and  _418
REMARK  170  A    between atoms: _420  and  _422
REMARK  171  A    between atoms: _422  and  _423
REMARK  172  A    between atoms: _425  and  _427
REMARK  173  A    between atoms: _427  and  _428
REMARK  174  A    between atoms: _427  and  _430
REMARK  175  A    between atoms: _430  and  _431
REMARK  176  A    between atoms: _437  and  _439
REMARK  177  A    between atoms: _439  and  _440
REMARK  178  A    between atoms: _439  and  _442
REMARK  179  A    between atoms: _442  and  _443
REMARK  180  A    between atoms: _446  and  _448
REMARK  181  A    between atoms: _448  and  _449
REMARK  182  A    between atoms: _448  and  _451
REMARK  183  A    between atoms: _454  and  _456
REMARK  184  A    between atoms: _456  and  _457
REMARK  185  A    between atoms: _456  and  _459
REMARK  186  A    between atoms: _459  and  _460
REMARK  187  A    between atoms: _463  and  _465
REMARK  188  A    between atoms: _465  and  _466
REMARK  189  A    between atoms: _465  and  _468
REMARK  190  A    between atoms: _468  and  _469
REMARK  191  A    between atoms: _473  and  _474
REMARK  192  A    between atoms: _479  and  _481
REMARK  193  A    between atoms: _481  and  _482
REMARK  194  A    between atoms: _481  and  _484
REMARK  195  A    between atoms: _487  and  _489
REMARK  196  A    between atoms: _489  and  _490
REMARK  197  A    between atoms: _489  and  _492
REMARK  198  A    between atoms: _492  and  _493
REMARK  199  A    between atoms: _498  and  _500
REMARK  200  A    between atoms: _500  and  _501
REMARK  201  A    between atoms: _500  and  _503
REMARK  202  A    between atoms: _506  and  _508
REMARK  203  A    between atoms: _508  and  _509
REMARK  204  A    between atoms: _508  and  _511
REMARK  205  A    between atoms: _511  and  _512
REMARK  206  A    between atoms: _515  and  _517
REMARK  207  A    between atoms: _517  and  _518
REMARK  208  A    between atoms: _520  and  _522
REMARK  209  A    between atoms: _522  and  _523
REMARK  210  A    between atoms: _522  and  _525
REMARK  211  A    between atoms: _525  and  _526
REMARK  212  A    between atoms: _526  and  _527
REMARK  213  A    between atoms: _527  and  _528
REMARK  214  A    between atoms: _537  and  _539
REMARK  215  A    between atoms: _539  and  _540
REMARK  216  A    between atoms: _539  and  _542
REMARK  217  A    between atoms: _542  and  _543
REMARK                            x       y       z     vdW  Elec       q    Type
REMARK                         _______ _______ _______ _____ _____    ______ ____
ROOT
ATOM      1  O   HOH     1     -15.215  -1.815  13.877  0.00  0.00    +0.000 OA
ENDROOT
TORSDOF 0
REMARK  Name = ../refined-set-2016/4yhq/4yhq_pocket.pdb
REMARK  217 active torsions:
REMARK  status: ('A' for Active; 'I' for Inactive)
REMARK    1  A    between atoms: _1  and  _3
REMARK    2  A    between atoms: _3  and  _4
REMARK    3  A    between atoms: _3  and  _6
REMARK    4  A    between atoms: _6  and  _7
REMARK    5  A    between atoms: _7  and  _8
REMARK    6  A    between atoms: _8  and  _9
REMARK    7  A    between atoms: _18  and  _20
REMARK    8  A    between atoms: _20  and  _21
REMARK    9  A    between atoms: _20  and  _23
REMARK   10  A    between atoms: _23  and  _24
REMARK   11  A    between atoms: _30  and  _32
REMARK   12  A    between atoms: _32  and  _33
REMARK   13  A    between atoms: _32  and  _35
REMARK   14  A    between atoms: _35  and  _36
REMARK   15  A    between atoms: _39  and  _41
REMARK   16  A    between atoms: _41  and  _42
REMARK   17  A    between atoms: _41  and  _44
REMARK   18  A    between atoms: _44  and  _45
REMARK   19  A    between atoms: _48  and  _50
REMARK   20  A    between atoms: _50  and  _51
REMARK   21  A    between atoms: _50  and  _53
REMARK   22  A    between atoms: _53  and  _54
REMARK   23  A    between atoms: _57  and  _59
REMARK   24  A    between atoms: _59  and  _60
REMARK   25  A    between atoms: _59  and  _62
REMARK   26  A    between atoms: _62  and  _63
REMARK   27  A    between atoms: _66  and  _68
REMARK   28  A    between atoms: _68  and  _69
REMARK   29  A    between atoms: _71  and  _73
REMARK   30  A    between atoms: _73  and  _74
REMARK   31  A    between atoms: _77  and  _79
REMARK   32  A    between atoms: _79  and  _80
REMARK   33  A    between atoms: _79  and  _82
REMARK   34  A    between atoms: _82  and  _83
REMARK   35  A    between atoms: _86  and  _88
REMARK   36  A    between atoms: _88  and  _89
REMARK   37  A    between atoms: _88  and  _91
REMARK   38  A    between atoms: _91  and  _92
REMARK   39  A    between atoms: _97  and  _99
REMARK   40  A    between atoms: _99  and  _100
REMARK   41  A    between atoms: _99  and  _102
REMARK   42  A    between atoms: _102  and  _103
REMARK   43  A    between atoms: _106  and  _108
REMARK   44  A    between atoms: _108  and  _109
REMARK   45  A    between atoms: _108  and  _111
REMARK   46  A    between atoms: _111  and  _112
REMARK   47  A    between atoms: _115  and  _117
REMARK   48  A    between atoms: _117  and  _118
REMARK   49  A    between atoms: _117  and  _120
REMARK   50  A    between atoms: _120  and  _121
REMARK   51  A    between atoms: _121  and  _122
REMARK   52  A    between atoms: _124  and  _126
REMARK   53  A    between atoms: _126  and  _127
REMARK   54  A    between atoms: _126  and  _129
REMARK   55  A    between atoms: _132  and  _134
REMARK   56  A    between atoms: _134  and  _135
REMARK   57  A    between atoms: _137  and  _139
REMARK   58  A    between atoms: _139  and  _140
REMARK   59  A    between atoms: _142  and  _144
REMARK   60  A    between atoms: _144  and  _145
REMARK   61  A    between atoms: _144  and  _147
REMARK   62  A    between atoms: _147  and  _148
REMARK   63  A    between atoms: _151  and  _153
REMARK   64  A    between atoms: _153  and  _154
REMARK   65  A    between atoms: _156  and  _158
REMARK   66  A    between atoms: _158  and  _159
REMARK   67  A    between atoms: _161  and  _163
REMARK   68  A    between atoms: _163  and  _164
REMARK   69  A    between atoms: _163  and  _166
REMARK   70  A    between atoms: _166  and  _167
REMARK   71  A    between atoms: _173  and  _175
REMARK   72  A    between atoms: _175  and  _176
REMARK   73  A    between atoms: _175  and  _178
REMARK   74  A    between atoms: _178  and  _179
REMARK   75  A    between atoms: _182  and  _184
REMARK   76  A    between atoms: _184  and  _185
REMARK   77  A    between atoms: _184  and  _187
REMARK   78  A    between atoms: _187  and  _188
REMARK   79  A    between atoms: _191  and  _193
REMARK   80  A    between atoms: _193  and  _194
REMARK   81  A    between atoms: _193  and  _196
REMARK   82  A    between atoms: _196  and  _197
REMARK   83  A    between atoms: _201  and  _202
REMARK   84  A    between atoms: _207  and  _209
REMARK   85  A    between atoms: _209  and  _210
REMARK   86  A    between atoms: _209  and  _212
REMARK   87  A    between atoms: _215  and  _217
REMARK   88  A    between atoms: _217  and  _218
REMARK   89  A    between atoms: _217  and  _220
REMARK   90  A    between atoms: _220  and  _221
REMARK   91  A    between atoms: _226  and  _228
REMARK   92  A    between atoms: _228  and  _229
REMARK   93  A    between atoms: _228  and  _231
REMARK   94  A    between atoms: _234  and  _236
REMARK   95  A    between atoms: _236  and  _237
REMARK   96  A    between atoms: _239  and  _241
REMARK   97  A    between atoms: _241  and  _242
REMARK   98  A    between atoms: _241  and  _244
REMARK   99  A    between atoms: _244  and  _245
REMARK  100  A    between atoms: _245  and  _246
REMARK  101  A    between atoms: _246  and  _247
REMARK  102  A    between atoms: _256  and  _258
REMARK  103  A    between atoms: _258  and  _259
REMARK  104  A    between atoms: _258  and  _261
REMARK  105  A    between atoms: _261  and  _262
REMARK  106  A    between atoms: _265  and  _267
REMARK  107  A    between atoms: _267  and  _268
REMARK  108  A    between atoms: _267  and  _270
REMARK  109  A    between atoms: _270  and  _271
REMARK  110  A    between atoms: _271  and  _272
REMARK  111  A    between atoms: _272  and  _273
REMARK  112  A    between atoms: _282  and  _284
REMARK  113  A    between atoms: _284  and  _285
REMARK  114  A    between atoms: _284  and  _287
REMARK  115  A    between atoms: _287  and  _288
REMARK  116  A    between atoms: _294  and  _296
REMARK  117  A    between atoms: _296  and  _297
REMARK  118  A    between atoms: _296  and  _299
REMARK  119  A    between atoms: _299  and  _300
REMARK  120  A    between atoms: _303  and  _305
REMARK  121  A    between atoms: _305  and  _306
REMARK  122  A    between atoms: _305  and  _308
REMARK  123  A    between atoms: _308  and  _309
REMARK  124  A    between atoms: _312  and  _314
REMARK  125  A    between atoms: _314  and  _315
REMARK  126  A    between atoms: _314  and  _317
REMARK  127  A    between atoms: _317  and  _318
REMARK  128  A    between atoms: _321  and  _323
REMARK  129  A    between atoms: _323  and  _324
REMARK  130  A    between atoms: _323  and  _326
REMARK  131  A    between atoms: _326  and  _327
REMARK  132  A    between atoms: _330  and  _332
REMARK  133  A    between atoms: _332  and  _333
REMARK  134  A    between atoms: _335  and  _337
REMARK  135  A    between atoms: _337  and  _338
REMARK  136  A    between atoms: _341  and  _343
REMARK  137  A    between atoms: _343  and  _344
REMARK  138  A    between atoms: _343  and  _346
REMARK  139  A    between atoms: _346  and  _347
REMARK  140  A    between atoms: _350  and  _352
REMARK  141  A    between atoms: _352  and  _353
REMARK  142  A    between atoms: _352  and  _355
REMARK  143  A    between atoms: _355  and  _356
REMARK  144  A    between atoms: _361  and  _363
REMARK  145  A    between atoms: _363  and  _364
REMARK  146  A    between atoms: _363  and  _366
REMARK  147  A    between atoms: _366  and  _367
REMARK  148  A    between atoms: _370  and  _372
REMARK  149  A    between atoms: _372  and  _373
REMARK  150  A    between atoms: _372  and  _375
REMARK  151  A    between atoms: _375  and  _376
REMARK  152  A    between atoms: _379  and  _381
REMARK  153  A    between atoms: _381  and  _382
REMARK  154  A    between atoms: _381  and  _384
REMARK  155  A    between atoms: _384  and  _385
REMARK  156  A    between atoms: _385  and  _386
REMARK  157  A    between atoms: _388  and  _390
REMARK  158  A    between atoms: _390  and  _391
REMARK  159  A    between atoms: _390  and  _393
REMARK  160  A    between atoms: _396  and  _398
REMARK  161  A    between atoms: _398  and  _399
REMARK  162  A    between atoms: _401  and  _403
REMARK  163  A    between atoms: _403  and  _404
REMARK  164  A    between atoms: _406  and  _408
REMARK  165  A    between atoms: _408  and  _409
REMARK  166  A    between atoms: _408  and  _411
REMARK  167  A    between atoms: _411  and  _412
REMARK  168  A    between atoms: _415  and  _417
REMARK  169  A    between atoms: _417  and  _418
REMARK  170  A    between atoms: _420  and  _422
REMARK  171  A    between atoms: _422  and  _423
REMARK  172  A    between atoms: _425  and  _427
REMARK  173  A    between atoms: _427  and  _428
REMARK  174  A    between atoms: _427  and  _430
REMARK  175  A    between atoms: _430  and  _431
REMARK  176  A    between atoms: _437  and  _439
REMARK  177  A    between atoms: _439  and  _440
REMARK  178  A    between atoms: _439  and  _442
REMARK  179  A    between atoms: _442  and  _443
REMARK  180  A    between atoms: _446  and  _448
REMARK  181  A    between atoms: _448  and  _449
REMARK  182  A    between atoms: _448  and  _451
REMARK  183  A    between atoms: _454  and  _456
REMARK  184  A    between atoms: _456  and  _457
REMARK  185  A    between atoms: _456  and  _459
REMARK  186  A    between atoms: _459  and  _460
REMARK  187  A    between atoms: _463  and  _465
REMARK  188  A    between atoms: _465  and  _466
REMARK  189  A    between atoms: _465  and  _468
REMARK  190  A    between atoms: _468  and  _469
REMARK  191  A    between atoms: _473  and  _474
REMARK  192  A    between atoms: _479  and  _481
REMARK  193  A    between atoms: _481  and  _482
REMARK  194  A    between atoms: _481  and  _484
REMARK  195  A    between atoms: _487  and  _489
REMARK  196  A    between atoms: _489  and  _490
REMARK  197  A    between atoms: _489  and  _492
REMARK  198  A    between atoms: _492  and  _493
REMARK  199  A    between atoms: _498  and  _500
REMARK  200  A    between atoms: _500  and  _501
REMARK  201  A    between atoms: _500  and  _503
REMARK  202  A    between atoms: _506  and  _508
REMARK  203  A    between atoms: _508  and  _509
REMARK  204  A    between atoms: _508  and  _511
REMARK  205  A    between atoms: _511  and  _512
REMARK  206  A    between atoms: _515  and  _517
REMARK  207  A    between atoms: _517  and  _518
REMARK  208  A    between atoms: _520  and  _522
REMARK  209  A    between atoms: _522  and  _523
REMARK  210  A    between atoms: _522  and  _525
REMARK  211  A    between atoms: _525  and  _526
REMARK  212  A    between atoms: _526  and  _527
REMARK  213  A    between atoms: _527  and  _528
REMARK  214  A    between atoms: _537  and  _539
REMARK  215  A    between atoms: _539  and  _540
REMARK  216  A    between atoms: _539  and  _542
REMARK  217  A    between atoms: _542  and  _543
REMARK                            x       y       z     vdW  Elec       q    Type
REMARK                         _______ _______ _______ _____ _____    ______ ____
ROOT
ATOM      1  O   HOH     1     -19.162   7.772  -2.363  0.00  0.00    +0.000 OA
ENDROOT
TORSDOF 0
REMARK  Name = ../refined-set-2016/4yhq/4yhq_pocket.pdb
REMARK  217 active torsions:
REMARK  status: ('A' for Active; 'I' for Inactive)
REMARK    1  A    between atoms: _1  and  _3
REMARK    2  A    between atoms: _3  and  _4
REMARK    3  A    between atoms: _3  and  _6
REMARK    4  A    between atoms: _6  and  _7
REMARK    5  A    between atoms: _7  and  _8
REMARK    6  A    between atoms: _8  and  _9
REMARK    7  A    between atoms: _18  and  _20
REMARK    8  A    between atoms: _20  and  _21
REMARK    9  A    between atoms: _20  and  _23
REMARK   10  A    between atoms: _23  and  _24
REMARK   11  A    between atoms: _30  and  _32
REMARK   12  A    between atoms: _32  and  _33
REMARK   13  A    between atoms: _32  and  _35
REMARK   14  A    between atoms: _35  and  _36
REMARK   15  A    between atoms: _39  and  _41
REMARK   16  A    between atoms: _41  and  _42
REMARK   17  A    between atoms: _41  and  _44
REMARK   18  A    between atoms: _44  and  _45
REMARK   19  A    between atoms: _48  and  _50
REMARK   20  A    between atoms: _50  and  _51
REMARK   21  A    between atoms: _50  and  _53
REMARK   22  A    between atoms: _53  and  _54
REMARK   23  A    between atoms: _57  and  _59
REMARK   24  A    between atoms: _59  and  _60
REMARK   25  A    between atoms: _59  and  _62
REMARK   26  A    between atoms: _62  and  _63
REMARK   27  A    between atoms: _66  and  _68
REMARK   28  A    between atoms: _68  and  _69
REMARK   29  A    between atoms: _71  and  _73
REMARK   30  A    between atoms: _73  and  _74
REMARK   31  A    between atoms: _77  and  _79
REMARK   32  A    between atoms: _79  and  _80
REMARK   33  A    between atoms: _79  and  _82
REMARK   34  A    between atoms: _82  and  _83
REMARK   35  A    between atoms: _86  and  _88
REMARK   36  A    between atoms: _88  and  _89
REMARK   37  A    between atoms: _88  and  _91
REMARK   38  A    between atoms: _91  and  _92
REMARK   39  A    between atoms: _97  and  _99
REMARK   40  A    between atoms: _99  and  _100
REMARK   41  A    between atoms: _99  and  _102
REMARK   42  A    between atoms: _102  and  _103
REMARK   43  A    between atoms: _106  and  _108
REMARK   44  A    between atoms: _108  and  _109
REMARK   45  A    between atoms: _108  and  _111
REMARK   46  A    between atoms: _111  and  _112
REMARK   47  A    between atoms: _115  and  _117
REMARK   48  A    between atoms: _117  and  _118
REMARK   49  A    between atoms: _117  and  _120
REMARK   50  A    between atoms: _120  and  _121
REMARK   51  A    between atoms: _121  and  _122
REMARK   52  A    between atoms: _124  and  _126
REMARK   53  A    between atoms: _126  and  _127
REMARK   54  A    between atoms: _126  and  _129
REMARK   55  A    between atoms: _132  and  _134
REMARK   56  A    between atoms: _134  and  _135
REMARK   57  A    between atoms: _137  and  _139
REMARK   58  A    between atoms: _139  and  _140
REMARK   59  A    between atoms: _142  and  _144
REMARK   60  A    between atoms: _144  and  _145
REMARK   61  A    between atoms: _144  and  _147
REMARK   62  A    between atoms: _147  and  _148
REMARK   63  A    between atoms: _151  and  _153
REMARK   64  A    between atoms: _153  and  _154
REMARK   65  A    between atoms: _156  and  _158
REMARK   66  A    between atoms: _158  and  _159
REMARK   67  A    between atoms: _161  and  _163
REMARK   68  A    between atoms: _163  and  _164
REMARK   69  A    between atoms: _163  and  _166
REMARK   70  A    between atoms: _166  and  _167
REMARK   71  A    between atoms: _173  and  _175
REMARK   72  A    between atoms: _175  and  _176
REMARK   73  A    between atoms: _175  and  _178
REMARK   74  A    between atoms: _178  and  _179
REMARK   75  A    between atoms: _182  and  _184
REMARK   76  A    between atoms: _184  and  _185
REMARK   77  A    between atoms: _184  and  _187
REMARK   78  A    between atoms: _187  and  _188
REMARK   79  A    between atoms: _191  and  _193
REMARK   80  A    between atoms: _193  and  _194
REMARK   81  A    between atoms: _193  and  _196
REMARK   82  A    between atoms: _196  and  _197
REMARK   83  A    between atoms: _201  and  _202
REMARK   84  A    between atoms: _207  and  _209
REMARK   85  A    between atoms: _209  and  _210
REMARK   86  A    between atoms: _209  and  _212
REMARK   87  A    between atoms: _215  and  _217
REMARK   88  A    between atoms: _217  and  _218
REMARK   89  A    between atoms: _217  and  _220
REMARK   90  A    between atoms: _220  and  _221
REMARK   91  A    between atoms: _226  and  _228
REMARK   92  A    between atoms: _228  and  _229
REMARK   93  A    between atoms: _228  and  _231
REMARK   94  A    between atoms: _234  and  _236
REMARK   95  A    between atoms: _236  and  _237
REMARK   96  A    between atoms: _239  and  _241
REMARK   97  A    between atoms: _241  and  _242
REMARK   98  A    between atoms: _241  and  _244
REMARK   99  A    between atoms: _244  and  _245
REMARK  100  A    between atoms: _245  and  _246
REMARK  101  A    between atoms: _246  and  _247
REMARK  102  A    between atoms: _256  and  _258
REMARK  103  A    between atoms: _258  and  _259
REMARK  104  A    between atoms: _258  and  _261
REMARK  105  A    between atoms: _261  and  _262
REMARK  106  A    between atoms: _265  and  _267
REMARK  107  A    between atoms: _267  and  _268
REMARK  108  A    between atoms: _267  and  _270
REMARK  109  A    between atoms: _270  and  _271
REMARK  110  A    between atoms: _271  and  _272
REMARK  111  A    between atoms: _272  and  _273
REMARK  112  A    between atoms: _282  and  _284
REMARK  113  A    between atoms: _284  and  _285
REMARK  114  A    between atoms: _284  and  _287
REMARK  115  A    between atoms: _287  and  _288
REMARK  116  A    between atoms: _294  and  _296
REMARK  117  A    between atoms: _296  and  _297
REMARK  118  A    between atoms: _296  and  _299
REMARK  119  A    between atoms: _299  and  _300
REMARK  120  A    between atoms: _303  and  _305
REMARK  121  A    between atoms: _305  and  _306
REMARK  122  A    between atoms: _305  and  _308
REMARK  123  A    between atoms: _308  and  _309
REMARK  124  A    between atoms: _312  and  _314
REMARK  125  A    between atoms: _314  and  _315
REMARK  126  A    between atoms: _314  and  _317
REMARK  127  A    between atoms: _317  and  _318
REMARK  128  A    between atoms: _321  and  _323
REMARK  129  A    between atoms: _323  and  _324
REMARK  130  A    between atoms: _323  and  _326
REMARK  131  A    between atoms: _326  and  _327
REMARK  132  A    between atoms: _330  and  _332
REMARK  133  A    between atoms: _332  and  _333
REMARK  134  A    between atoms: _335  and  _337
REMARK  135  A    between atoms: _337  and  _338
REMARK  136  A    between atoms: _341  and  _343
REMARK  137  A    between atoms: _343  and  _344
REMARK  138  A    between atoms: _343  and  _346
REMARK  139  A    between atoms: _346  and  _347
REMARK  140  A    between atoms: _350  and  _352
REMARK  141  A    between atoms: _352  and  _353
REMARK  142  A    between atoms: _352  and  _355
REMARK  143  A    between atoms: _355  and  _356
REMARK  144  A    between atoms: _361  and  _363
REMARK  145  A    between atoms: _363  and  _364
REMARK  146  A    between atoms: _363  and  _366
REMARK  147  A    between atoms: _366  and  _367
REMARK  148  A    between atoms: _370  and  _372
REMARK  149  A    between atoms: _372  and  _373
REMARK  150  A    between atoms: _372  and  _375
REMARK  151  A    between atoms: _375  and  _376
REMARK  152  A    between atoms: _379  and  _381
REMARK  153  A    between atoms: _381  and  _382
REMARK  154  A    between atoms: _381  and  _384
REMARK  155  A    between atoms: _384  and  _385
REMARK  156  A    between atoms: _385  and  _386
REMARK  157  A    between atoms: _388  and  _390
REMARK  158  A    between atoms: _390  and  _391
REMARK  159  A    between atoms: _390  and  _393
REMARK  160  A    between atoms: _396  and  _398
REMARK  161  A    between atoms: _398  and  _399
REMARK  162  A    between atoms: _401  and  _403
REMARK  163  A    between atoms: _403  and  _404
REMARK  164  A    between atoms: _406  and  _408
REMARK  165  A    between atoms: _408  and  _409
REMARK  166  A    between atoms: _408  and  _411
REMARK  167  A    between atoms: _411  and  _412
REMARK  168  A    between atoms: _415  and  _417
REMARK  169  A    between atoms: _417  and  _418
REMARK  170  A    between atoms: _420  and  _422
REMARK  171  A    between atoms: _422  and  _423
REMARK  172  A    between atoms: _425  and  _427
REMARK  173  A    between atoms: _427  and  _428
REMARK  174  A    between atoms: _427  and  _430
REMARK  175  A    between atoms: _430  and  _431
REMARK  176  A    between atoms: _437  and  _439
REMARK  177  A    between atoms: _439  and  _440
REMARK  178  A    between atoms: _439  and  _442
REMARK  179  A    between atoms: _442  and  _443
REMARK  180  A    between atoms: _446  and  _448
REMARK  181  A    between atoms: _448  and  _449
REMARK  182  A    between atoms: _448  and  _451
REMARK  183  A    between atoms: _454  and  _456
REMARK  184  A    between atoms: _456  and  _457
REMARK  185  A    between atoms: _456  and  _459
REMARK  186  A    between atoms: _459  and  _460
REMARK  187  A    between atoms: _463  and  _465
REMARK  188  A    between atoms: _465  and  _466
REMARK  189  A    between atoms: _465  and  _468
REMARK  190  A    between atoms: _468  and  _469
REMARK  191  A    between atoms: _473  and  _474
REMARK  192  A    between atoms: _479  and  _481
REMARK  193  A    between atoms: _481  and  _482
REMARK  194  A    between atoms: _481  and  _484
REMARK  195  A    between atoms: _487  and  _489
REMARK  196  A    between atoms: _489  and  _490
REMARK  197  A    between atoms: _489  and  _492
REMARK  198  A    between atoms: _492  and  _493
REMARK  199  A    between atoms: _498  and  _500
REMARK  200  A    between atoms: _500  and  _501
REMARK  201  A    between atoms: _500  and  _503
REMARK  202  A    between atoms: _506  and  _508
REMARK  203  A    between atoms: _508  and  _509
REMARK  204  A    between atoms: _508  and  _511
REMARK  205  A    between atoms: _511  and  _512
REMARK  206  A    between atoms: _515  and  _517
REMARK  207  A    between atoms: _517  and  _518
REMARK  208  A    between atoms: _520  and  _522
REMARK  209  A    between atoms: _522  and  _523
REMARK  210  A    between atoms: _522  and  _525
REMARK  211  A    between atoms: _525  and  _526
REMARK  212  A    between atoms: _526  and  _527
REMARK  213  A    between atoms: _527  and  _528
REMARK  214  A    between atoms: _537  and  _539
REMARK  215  A    between atoms: _539  and  _540
REMARK  216  A    between atoms: _539  and  _542
REMARK  217  A    between atoms: _542  and  _543
REMARK                            x       y       z     vdW  Elec       q    Type
REMARK                         _______ _______ _______ _____ _____    ______ ____
ROOT
ATOM      1  O   HOH     1     -19.108  -7.883   5.540  0.00  0.00    +0.000 OA
ENDROOT
TORSDOF 0
REMARK  Name = ../refined-set-2016/4yhq/4yhq_pocket.pdb
REMARK  217 active torsions:
REMARK  status: ('A' for Active; 'I' for Inactive)
REMARK    1  A    between atoms: _1  and  _3
REMARK    2  A    between atoms: _3  and  _4
REMARK    3  A    between atoms: _3  and  _6
REMARK    4  A    between atoms: _6  and  _7
REMARK    5  A    between atoms: _7  and  _8
REMARK    6  A    between atoms: _8  and  _9
REMARK    7  A    between atoms: _18  and  _20
REMARK    8  A    between atoms: _20  and  _21
REMARK    9  A    between atoms: _20  and  _23
REMARK   10  A    between atoms: _23  and  _24
REMARK   11  A    between atoms: _30  and  _32
REMARK   12  A    between atoms: _32  and  _33
REMARK   13  A    between atoms: _32  and  _35
REMARK   14  A    between atoms: _35  and  _36
REMARK   15  A    between atoms: _39  and  _41
REMARK   16  A    between atoms: _41  and  _42
REMARK   17  A    between atoms: _41  and  _44
REMARK   18  A    between atoms: _44  and  _45
REMARK   19  A    between atoms: _48  and  _50
REMARK   20  A    between atoms: _50  and  _51
REMARK   21  A    between atoms: _50  and  _53
REMARK   22  A    between atoms: _53  and  _54
REMARK   23  A    between atoms: _57  and  _59
REMARK   24  A    between atoms: _59  and  _60
REMARK   25  A    between atoms: _59  and  _62
REMARK   26  A    between atoms: _62  and  _63
REMARK   27  A    between atoms: _66  and  _68
REMARK   28  A    between atoms: _68  and  _69
REMARK   29  A    between atoms: _71  and  _73
REMARK   30  A    between atoms: _73  and  _74
REMARK   31  A    between atoms: _77  and  _79
REMARK   32  A    between atoms: _79  and  _80
REMARK   33  A    between atoms: _79  and  _82
REMARK   34  A    between atoms: _82  and  _83
REMARK   35  A    between atoms: _86  and  _88
REMARK   36  A    between atoms: _88  and  _89
REMARK   37  A    between atoms: _88  and  _91
REMARK   38  A    between atoms: _91  and  _92
REMARK   39  A    between atoms: _97  and  _99
REMARK   40  A    between atoms: _99  and  _100
REMARK   41  A    between atoms: _99  and  _102
REMARK   42  A    between atoms: _102  and  _103
REMARK   43  A    between atoms: _106  and  _108
REMARK   44  A    between atoms: _108  and  _109
REMARK   45  A    between atoms: _108  and  _111
REMARK   46  A    between atoms: _111  and  _112
REMARK   47  A    between atoms: _115  and  _117
REMARK   48  A    between atoms: _117  and  _118
REMARK   49  A    between atoms: _117  and  _120
REMARK   50  A    between atoms: _120  and  _121
REMARK   51  A    between atoms: _121  and  _122
REMARK   52  A    between atoms: _124  and  _126
REMARK   53  A    between atoms: _126  and  _127
REMARK   54  A    between atoms: _126  and  _129
REMARK   55  A    between atoms: _132  and  _134
REMARK   56  A    between atoms: _134  and  _135
REMARK   57  A    between atoms: _137  and  _139
REMARK   58  A    between atoms: _139  and  _140
REMARK   59  A    between atoms: _142  and  _144
REMARK   60  A    between atoms: _144  and  _145
REMARK   61  A    between atoms: _144  and  _147
REMARK   62  A    between atoms: _147  and  _148
REMARK   63  A    between atoms: _151  and  _153
REMARK   64  A    between atoms: _153  and  _154
REMARK   65  A    between atoms: _156  and  _158
REMARK   66  A    between atoms: _158  and  _159
REMARK   67  A    between atoms: _161  and  _163
REMARK   68  A    between atoms: _163  and  _164
REMARK   69  A    between atoms: _163  and  _166
REMARK   70  A    between atoms: _166  and  _167
REMARK   71  A    between atoms: _173  and  _175
REMARK   72  A    between atoms: _175  and  _176
REMARK   73  A    between atoms: _175  and  _178
REMARK   74  A    between atoms: _178  and  _179
REMARK   75  A    between atoms: _182  and  _184
REMARK   76  A    between atoms: _184  and  _185
REMARK   77  A    between atoms: _184  and  _187
REMARK   78  A    between atoms: _187  and  _188
REMARK   79  A    between atoms: _191  and  _193
REMARK   80  A    between atoms: _193  and  _194
REMARK   81  A    between atoms: _193  and  _196
REMARK   82  A    between atoms: _196  and  _197
REMARK   83  A    between atoms: _201  and  _202
REMARK   84  A    between atoms: _207  and  _209
REMARK   85  A    between atoms: _209  and  _210
REMARK   86  A    between atoms: _209  and  _212
REMARK   87  A    between atoms: _215  and  _217
REMARK   88  A    between atoms: _217  and  _218
REMARK   89  A    between atoms: _217  and  _220
REMARK   90  A    between atoms: _220  and  _221
REMARK   91  A    between atoms: _226  and  _228
REMARK   92  A    between atoms: _228  and  _229
REMARK   93  A    between atoms: _228  and  _231
REMARK   94  A    between atoms: _234  and  _236
REMARK   95  A    between atoms: _236  and  _237
REMARK   96  A    between atoms: _239  and  _241
REMARK   97  A    between atoms: _241  and  _242
REMARK   98  A    between atoms: _241  and  _244
REMARK   99  A    between atoms: _244  and  _245
REMARK  100  A    between atoms: _245  and  _246
REMARK  101  A    between atoms: _246  and  _247
REMARK  102  A    between atoms: _256  and  _258
REMARK  103  A    between atoms: _258  and  _259
REMARK  104  A    between atoms: _258  and  _261
REMARK  105  A    between atoms: _261  and  _262
REMARK  106  A    between atoms: _265  and  _267
REMARK  107  A    between atoms: _267  and  _268
REMARK  108  A    between atoms: _267  and  _270
REMARK  109  A    between atoms: _270  and  _271
REMARK  110  A    between atoms: _271  and  _272
REMARK  111  A    between atoms: _272  and  _273
REMARK  112  A    between atoms: _282  and  _284
REMARK  113  A    between atoms: _284  and  _285
REMARK  114  A    between atoms: _284  and  _287
REMARK  115  A    between atoms: _287  and  _288
REMARK  116  A    between atoms: _294  and  _296
REMARK  117  A    between atoms: _296  and  _297
REMARK  118  A    between atoms: _296  and  _299
REMARK  119  A    between atoms: _299  and  _300
REMARK  120  A    between atoms: _303  and  _305
REMARK  121  A    between atoms: _305  and  _306
REMARK  122  A    between atoms: _305  and  _308
REMARK  123  A    between atoms: _308  and  _309
REMARK  124  A    between atoms: _312  and  _314
REMARK  125  A    between atoms: _314  and  _315
REMARK  126  A    between atoms: _314  and  _317
REMARK  127  A    between atoms: _317  and  _318
REMARK  128  A    between atoms: _321  and  _323
REMARK  129  A    between atoms: _323  and  _324
REMARK  130  A    between atoms: _323  and  _326
REMARK  131  A    between atoms: _326  and  _327
REMARK  132  A    between atoms: _330  and  _332
REMARK  133  A    between atoms: _332  and  _333
REMARK  134  A    between atoms: _335  and  _337
REMARK  135  A    between atoms: _337  and  _338
REMARK  136  A    between atoms: _341  and  _343
REMARK  137  A    between atoms: _343  and  _344
REMARK  138  A    between atoms: _343  and  _346
REMARK  139  A    between atoms: _346  and  _347
REMARK  140  A    between atoms: _350  and  _352
REMARK  141  A    between atoms: _352  and  _353
REMARK  142  A    between atoms: _352  and  _355
REMARK  143  A    between atoms: _355  and  _356
REMARK  144  A    between atoms: _361  and  _363
REMARK  145  A    between atoms: _363  and  _364
REMARK  146  A    between atoms: _363  and  _366
REMARK  147  A    between atoms: _366  and  _367
REMARK  148  A    between atoms: _370  and  _372
REMARK  149  A    between atoms: _372  and  _373
REMARK  150  A    between atoms: _372  and  _375
REMARK  151  A    between atoms: _375  and  _376
REMARK  152  A    between atoms: _379  and  _381
REMARK  153  A    between atoms: _381  and  _382
REMARK  154  A    between atoms: _381  and  _384
REMARK  155  A    between atoms: _384  and  _385
REMARK  156  A    between atoms: _385  and  _386
REMARK  157  A    between atoms: _388  and  _390
REMARK  158  A    between atoms: _390  and  _391
REMARK  159  A    between atoms: _390  and  _393
REMARK  160  A    between atoms: _396  and  _398
REMARK  161  A    between atoms: _398  and  _399
REMARK  162  A    between atoms: _401  and  _403
REMARK  163  A    between atoms: _403  and  _404
REMARK  164  A    between atoms: _406  and  _408
REMARK  165  A    between atoms: _408  and  _409
REMARK  166  A    between atoms: _408  and  _411
REMARK  167  A    between atoms: _411  and  _412
REMARK  168  A    between atoms: _415  and  _417
REMARK  169  A    between atoms: _417  and  _418
REMARK  170  A    between atoms: _420  and  _422
REMARK  171  A    between atoms: _422  and  _423
REMARK  172  A    between atoms: _425  and  _427
REMARK  173  A    between atoms: _427  and  _428
REMARK  174  A    between atoms: _427  and  _430
REMARK  175  A    between atoms: _430  and  _431
REMARK  176  A    between atoms: _437  and  _439
REMARK  177  A    between atoms: _439  and  _440
REMARK  178  A    between atoms: _439  and  _442
REMARK  179  A    between atoms: _442  and  _443
REMARK  180  A    between atoms: _446  and  _448
REMARK  181  A    between atoms: _448  and  _449
REMARK  182  A    between atoms: _448  and  _451
REMARK  183  A    between atoms: _454  and  _456
REMARK  184  A    between atoms: _456  and  _457
REMARK  185  A    between atoms: _456  and  _459
REMARK  186  A    between atoms: _459  and  _460
REMARK  187  A    between atoms: _463  and  _465
REMARK  188  A    between atoms: _465  and  _466
REMARK  189  A    between atoms: _465  and  _468
REMARK  190  A    between atoms: _468  and  _469
REMARK  191  A    between atoms: _473  and  _474
REMARK  192  A    between atoms: _479  and  _481
REMARK  193  A    between atoms: _481  and  _482
REMARK  194  A    between atoms: _481  and  _484
REMARK  195  A    between atoms: _487  and  _489
REMARK  196  A    between atoms: _489  and  _490
REMARK  197  A    between atoms: _489  and  _492
REMARK  198  A    between atoms: _492  and  _493
REMARK  199  A    between atoms: _498  and  _500
REMARK  200  A    between atoms: _500  and  _501
REMARK  201  A    between atoms: _500  and  _503
REMARK  202  A    between atoms: _506  and  _508
REMARK  203  A    between atoms: _508  and  _509
REMARK  204  A    between atoms: _508  and  _511
REMARK  205  A    between atoms: _511  and  _512
REMARK  206  A    between atoms: _515  and  _517
REMARK  207  A    between atoms: _517  and  _518
REMARK  208  A    between atoms: _520  and  _522
REMARK  209  A    between atoms: _522  and  _523
REMARK  210  A    between atoms: _522  and  _525
REMARK  211  A    between atoms: _525  and  _526
REMARK  212  A    between atoms: _526  and  _527
REMARK  213  A    between atoms: _527  and  _528
REMARK  214  A    between atoms: _537  and  _539
REMARK  215  A    between atoms: _539  and  _540
REMARK  216  A    between atoms: _539  and  _542
REMARK  217  A    between atoms: _542  and  _543
REMARK                            x       y       z     vdW  Elec       q    Type
REMARK                         _______ _______ _______ _____ _____    ______ ____
ROOT
ATOM      1  O   HOH     1     -17.029   2.062 -12.908  0.00  0.00    +0.000 OA
ENDROOT
TORSDOF 0
REMARK  Name = ../refined-set-2016/4yhq/4yhq_pocket.pdb
REMARK  217 active torsions:
REMARK  status: ('A' for Active; 'I' for Inactive)
REMARK    1  A    between atoms: _1  and  _3
REMARK    2  A    between atoms: _3  and  _4
REMARK    3  A    between atoms: _3  and  _6
REMARK    4  A    between atoms: _6  and  _7
REMARK    5  A    between atoms: _7  and  _8
REMARK    6  A    between atoms: _8  and  _9
REMARK    7  A    between atoms: _18  and  _20
REMARK    8  A    between atoms: _20  and  _21
REMARK    9  A    between atoms: _20  and  _23
REMARK   10  A    between atoms: _23  and  _24
REMARK   11  A    between atoms: _30  and  _32
REMARK   12  A    between atoms: _32  and  _33
REMARK   13  A    between atoms: _32  and  _35
REMARK   14  A    between atoms: _35  and  _36
REMARK   15  A    between atoms: _39  and  _41
REMARK   16  A    between atoms: _41  and  _42
REMARK   17  A    between atoms: _41  and  _44
REMARK   18  A    between atoms: _44  and  _45
REMARK   19  A    between atoms: _48  and  _50
REMARK   20  A    between atoms: _50  and  _51
REMARK   21  A    between atoms: _50  and  _53
REMARK   22  A    between atoms: _53  and  _54
REMARK   23  A    between atoms: _57  and  _59
REMARK   24  A    between atoms: _59  and  _60
REMARK   25  A    between atoms: _59  and  _62
REMARK   26  A    between atoms: _62  and  _63
REMARK   27  A    between atoms: _66  and  _68
REMARK   28  A    between atoms: _68  and  _69
REMARK   29  A    between atoms: _71  and  _73
REMARK   30  A    between atoms: _73  and  _74
REMARK   31  A    between atoms: _77  and  _79
REMARK   32  A    between atoms: _79  and  _80
REMARK   33  A    between atoms: _79  and  _82
REMARK   34  A    between atoms: _82  and  _83
REMARK   35  A    between atoms: _86  and  _88
REMARK   36  A    between atoms: _88  and  _89
REMARK   37  A    between atoms: _88  and  _91
REMARK   38  A    between atoms: _91  and  _92
REMARK   39  A    between atoms: _97  and  _99
REMARK   40  A    between atoms: _99  and  _100
REMARK   41  A    between atoms: _99  and  _102
REMARK   42  A    between atoms: _102  and  _103
REMARK   43  A    between atoms: _106  and  _108
REMARK   44  A    between atoms: _108  and  _109
REMARK   45  A    between atoms: _108  and  _111
REMARK   46  A    between atoms: _111  and  _112
REMARK   47  A    between atoms: _115  and  _117
REMARK   48  A    between atoms: _117  and  _118
REMARK   49  A    between atoms: _117  and  _120
REMARK   50  A    between atoms: _120  and  _121
REMARK   51  A    between atoms: _121  and  _122
REMARK   52  A    between atoms: _124  and  _126
REMARK   53  A    between atoms: _126  and  _127
REMARK   54  A    between atoms: _126  and  _129
REMARK   55  A    between atoms: _132  and  _134
REMARK   56  A    between atoms: _134  and  _135
REMARK   57  A    between atoms: _137  and  _139
REMARK   58  A    between atoms: _139  and  _140
REMARK   59  A    between atoms: _142  and  _144
REMARK   60  A    between atoms: _144  and  _145
REMARK   61  A    between atoms: _144  and  _147
REMARK   62  A    between atoms: _147  and  _148
REMARK   63  A    between atoms: _151  and  _153
REMARK   64  A    between atoms: _153  and  _154
REMARK   65  A    between atoms: _156  and  _158
REMARK   66  A    between atoms: _158  and  _159
REMARK   67  A    between atoms: _161  and  _163
REMARK   68  A    between atoms: _163  and  _164
REMARK   69  A    between atoms: _163  and  _166
REMARK   70  A    between atoms: _166  and  _167
REMARK   71  A    between atoms: _173  and  _175
REMARK   72  A    between atoms: _175  and  _176
REMARK   73  A    between atoms: _175  and  _178
REMARK   74  A    between atoms: _178  and  _179
REMARK   75  A    between atoms: _182  and  _184
REMARK   76  A    between atoms: _184  and  _185
REMARK   77  A    between atoms: _184  and  _187
REMARK   78  A    between atoms: _187  and  _188
REMARK   79  A    between atoms: _191  and  _193
REMARK   80  A    between atoms: _193  and  _194
REMARK   81  A    between atoms: _193  and  _196
REMARK   82  A    between atoms: _196  and  _197
REMARK   83  A    between atoms: _201  and  _202
REMARK   84  A    between atoms: _207  and  _209
REMARK   85  A    between atoms: _209  and  _210
REMARK   86  A    between atoms: _209  and  _212
REMARK   87  A    between atoms: _215  and  _217
REMARK   88  A    between atoms: _217  and  _218
REMARK   89  A    between atoms: _217  and  _220
REMARK   90  A    between atoms: _220  and  _221
REMARK   91  A    between atoms: _226  and  _228
REMARK   92  A    between atoms: _228  and  _229
REMARK   93  A    between atoms: _228  and  _231
REMARK   94  A    between atoms: _234  and  _236
REMARK   95  A    between atoms: _236  and  _237
REMARK   96  A    between atoms: _239  and  _241
REMARK   97  A    between atoms: _241  and  _242
REMARK   98  A    between atoms: _241  and  _244
REMARK   99  A    between atoms: _244  and  _245
REMARK  100  A    between atoms: _245  and  _246
REMARK  101  A    between atoms: _246  and  _247
REMARK  102  A    between atoms: _256  and  _258
REMARK  103  A    between atoms: _258  and  _259
REMARK  104  A    between atoms: _258  and  _261
REMARK  105  A    between atoms: _261  and  _262
REMARK  106  A    between atoms: _265  and  _267
REMARK  107  A    between atoms: _267  and  _268
REMARK  108  A    between atoms: _267  and  _270
REMARK  109  A    between atoms: _270  and  _271
REMARK  110  A    between atoms: _271  and  _272
REMARK  111  A    between atoms: _272  and  _273
REMARK  112  A    between atoms: _282  and  _284
REMARK  113  A    between atoms: _284  and  _285
REMARK  114  A    between atoms: _284  and  _287
REMARK  115  A    between atoms: _287  and  _288
REMARK  116  A    between atoms: _294  and  _296
REMARK  117  A    between atoms: _296  and  _297
REMARK  118  A    between atoms: _296  and  _299
REMARK  119  A    between atoms: _299  and  _300
REMARK  120  A    between atoms: _303  and  _305
REMARK  121  A    between atoms: _305  and  _306
REMARK  122  A    between atoms: _305  and  _308
REMARK  123  A    between atoms: _308  and  _309
REMARK  124  A    between atoms: _312  and  _314
REMARK  125  A    between atoms: _314  and  _315
REMARK  126  A    between atoms: _314  and  _317
REMARK  127  A    between atoms: _317  and  _318
REMARK  128  A    between atoms: _321  and  _323
REMARK  129  A    between atoms: _323  and  _324
REMARK  130  A    between atoms: _323  and  _326
REMARK  131  A    between atoms: _326  and  _327
REMARK  132  A    between atoms: _330  and  _332
REMARK  133  A    between atoms: _332  and  _333
REMARK  134  A    between atoms: _335  and  _337
REMARK  135  A    between atoms: _337  and  _338
REMARK  136  A    between atoms: _341  and  _343
REMARK  137  A    between atoms: _343  and  _344
REMARK  138  A    between atoms: _343  and  _346
REMARK  139  A    between atoms: _346  and  _347
REMARK  140  A    between atoms: _350  and  _352
REMARK  141  A    between atoms: _352  and  _353
REMARK  142  A    between atoms: _352  and  _355
REMARK  143  A    between atoms: _355  and  _356
REMARK  144  A    between atoms: _361  and  _363
REMARK  145  A    between atoms: _363  and  _364
REMARK  146  A    between atoms: _363  and  _366
REMARK  147  A    between atoms: _366  and  _367
REMARK  148  A    between atoms: _370  and  _372
REMARK  149  A    between atoms: _372  and  _373
REMARK  150  A    between atoms: _372  and  _375
REMARK  151  A    between atoms: _375  and  _376
REMARK  152  A    between atoms: _379  and  _381
REMARK  153  A    between atoms: _381  and  _382
REMARK  154  A    between atoms: _381  and  _384
REMARK  155  A    between atoms: _384  and  _385
REMARK  156  A    between atoms: _385  and  _386
REMARK  157  A    between atoms: _388  and  _390
REMARK  158  A    between atoms: _390  and  _391
REMARK  159  A    between atoms: _390  and  _393
REMARK  160  A    between atoms: _396  and  _398
REMARK  161  A    between atoms: _398  and  _399
REMARK  162  A    between atoms: _401  and  _403
REMARK  163  A    between atoms: _403  and  _404
REMARK  164  A    between atoms: _406  and  _408
REMARK  165  A    between atoms: _408  and  _409
REMARK  166  A    between atoms: _408  and  _411
REMARK  167  A    between atoms: _411  and  _412
REMARK  168  A    between atoms: _415  and  _417
REMARK  169  A    between atoms: _417  and  _418
REMARK  170  A    between atoms: _420  and  _422
REMARK  171  A    between atoms: _422  and  _423
REMARK  172  A    between atoms: _425  and  _427
REMARK  173  A    between atoms: _427  and  _428
REMARK  174  A    between atoms: _427  and  _430
REMARK  175  A    between atoms: _430  and  _431
REMARK  176  A    between atoms: _437  and  _439
REMARK  177  A    between atoms: _439  and  _440
REMARK  178  A    between atoms: _439  and  _442
REMARK  179  A    between atoms: _442  and  _443
REMARK  180  A    between atoms: _446  and  _448
REMARK  181  A    between atoms: _448  and  _449
REMARK  182  A    between atoms: _448  and  _451
REMARK  183  A    between atoms: _454  and  _456
REMARK  184  A    between atoms: _456  and  _457
REMARK  185  A    between atoms: _456  and  _459
REMARK  186  A    between atoms: _459  and  _460
REMARK  187  A    between atoms: _463  and  _465
REMARK  188  A    between atoms: _465  and  _466
REMARK  189  A    between atoms: _465  and  _468
REMARK  190  A    between atoms: _468  and  _469
REMARK  191  A    between atoms: _473  and  _474
REMARK  192  A    between atoms: _479  and  _481
REMARK  193  A    between atoms: _481  and  _482
REMARK  194  A    between atoms: _481  and  _484
REMARK  195  A    between atoms: _487  and  _489
REMARK  196  A    between atoms: _489  and  _490
REMARK  197  A    between atoms: _489  and  _492
REMARK  198  A    between atoms: _492  and  _493
REMARK  199  A    between atoms: _498  and  _500
REMARK  200  A    between atoms: _500  and  _501
REMARK  201  A    between atoms: _500  and  _503
REMARK  202  A    between atoms: _506  and  _508
REMARK  203  A    between atoms: _508  and  _509
REMARK  204  A    between atoms: _508  and  _511
REMARK  205  A    between atoms: _511  and  _512
REMARK  206  A    between atoms: _515  and  _517
REMARK  207  A    between atoms: _517  and  _518
REMARK  208  A    between atoms: _520  and  _522
REMARK  209  A    between atoms: _522  and  _523
REMARK  210  A    between atoms: _522  and  _525
REMARK  211  A    between atoms: _525  and  _526
REMARK  212  A    between atoms: _526  and  _527
REMARK  213  A    between atoms: _527  and  _528
REMARK  214  A    between atoms: _537  and  _539
REMARK  215  A    between atoms: _539  and  _540
REMARK  216  A    between atoms: _539  and  _542
REMARK  217  A    between atoms: _542  and  _543
REMARK                            x       y       z     vdW  Elec       q    Type
REMARK                         _______ _______ _______ _____ _____    ______ ____
ROOT
ATOM      1  O   HOH     1      -9.805   5.502  -0.850  0.00  0.00    +0.000 OA
ENDROOT
TORSDOF 0
REMARK  Name = ../refined-set-2016/4yhq/4yhq_pocket.pdb
REMARK  217 active torsions:
REMARK  status: ('A' for Active; 'I' for Inactive)
REMARK    1  A    between atoms: _1  and  _3
REMARK    2  A    between atoms: _3  and  _4
REMARK    3  A    between atoms: _3  and  _6
REMARK    4  A    between atoms: _6  and  _7
REMARK    5  A    between atoms: _7  and  _8
REMARK    6  A    between atoms: _8  and  _9
REMARK    7  A    between atoms: _18  and  _20
REMARK    8  A    between atoms: _20  and  _21
REMARK    9  A    between atoms: _20  and  _23
REMARK   10  A    between atoms: _23  and  _24
REMARK   11  A    between atoms: _30  and  _32
REMARK   12  A    between atoms: _32  and  _33
REMARK   13  A    between atoms: _32  and  _35
REMARK   14  A    between atoms: _35  and  _36
REMARK   15  A    between atoms: _39  and  _41
REMARK   16  A    between atoms: _41  and  _42
REMARK   17  A    between atoms: _41  and  _44
REMARK   18  A    between atoms: _44  and  _45
REMARK   19  A    between atoms: _48  and  _50
REMARK   20  A    between atoms: _50  and  _51
REMARK   21  A    between atoms: _50  and  _53
REMARK   22  A    between atoms: _53  and  _54
REMARK   23  A    between atoms: _57  and  _59
REMARK   24  A    between atoms: _59  and  _60
REMARK   25  A    between atoms: _59  and  _62
REMARK   26  A    between atoms: _62  and  _63
REMARK   27  A    between atoms: _66  and  _68
REMARK   28  A    between atoms: _68  and  _69
REMARK   29  A    between atoms: _71  and  _73
REMARK   30  A    between atoms: _73  and  _74
REMARK   31  A    between atoms: _77  and  _79
REMARK   32  A    between atoms: _79  and  _80
REMARK   33  A    between atoms: _79  and  _82
REMARK   34  A    between atoms: _82  and  _83
REMARK   35  A    between atoms: _86  and  _88
REMARK   36  A    between atoms: _88  and  _89
REMARK   37  A    between atoms: _88  and  _91
REMARK   38  A    between atoms: _91  and  _92
REMARK   39  A    between atoms: _97  and  _99
REMARK   40  A    between atoms: _99  and  _100
REMARK   41  A    between atoms: _99  and  _102
REMARK   42  A    between atoms: _102  and  _103
REMARK   43  A    between atoms: _106  and  _108
REMARK   44  A    between atoms: _108  and  _109
REMARK   45  A    between atoms: _108  and  _111
REMARK   46  A    between atoms: _111  and  _112
REMARK   47  A    between atoms: _115  and  _117
REMARK   48  A    between atoms: _117  and  _118
REMARK   49  A    between atoms: _117  and  _120
REMARK   50  A    between atoms: _120  and  _121
REMARK   51  A    between atoms: _121  and  _122
REMARK   52  A    between atoms: _124  and  _126
REMARK   53  A    between atoms: _126  and  _127
REMARK   54  A    between atoms: _126  and  _129
REMARK   55  A    between atoms: _132  and  _134
REMARK   56  A    between atoms: _134  and  _135
REMARK   57  A    between atoms: _137  and  _139
REMARK   58  A    between atoms: _139  and  _140
REMARK   59  A    between atoms: _142  and  _144
REMARK   60  A    between atoms: _144  and  _145
REMARK   61  A    between atoms: _144  and  _147
REMARK   62  A    between atoms: _147  and  _148
REMARK   63  A    between atoms: _151  and  _153
REMARK   64  A    between atoms: _153  and  _154
REMARK   65  A    between atoms: _156  and  _158
REMARK   66  A    between atoms: _158  and  _159
REMARK   67  A    between atoms: _161  and  _163
REMARK   68  A    between atoms: _163  and  _164
REMARK   69  A    between atoms: _163  and  _166
REMARK   70  A    between atoms: _166  and  _167
REMARK   71  A    between atoms: _173  and  _175
REMARK   72  A    between atoms: _175  and  _176
REMARK   73  A    between atoms: _175  and  _178
REMARK   74  A    between atoms: _178  and  _179
REMARK   75  A    between atoms: _182  and  _184
REMARK   76  A    between atoms: _184  and  _185
REMARK   77  A    between atoms: _184  and  _187
REMARK   78  A    between atoms: _187  and  _188
REMARK   79  A    between atoms: _191  and  _193
REMARK   80  A    between atoms: _193  and  _194
REMARK   81  A    between atoms: _193  and  _196
REMARK   82  A    between atoms: _196  and  _197
REMARK   83  A    between atoms: _201  and  _202
REMARK   84  A    between atoms: _207  and  _209
REMARK   85  A    between atoms: _209  and  _210
REMARK   86  A    between atoms: _209  and  _212
REMARK   87  A    between atoms: _215  and  _217
REMARK   88  A    between atoms: _217  and  _218
REMARK   89  A    between atoms: _217  and  _220
REMARK   90  A    between atoms: _220  and  _221
REMARK   91  A    between atoms: _226  and  _228
REMARK   92  A    between atoms: _228  and  _229
REMARK   93  A    between atoms: _228  and  _231
REMARK   94  A    between atoms: _234  and  _236
REMARK   95  A    between atoms: _236  and  _237
REMARK   96  A    between atoms: _239  and  _241
REMARK   97  A    between atoms: _241  and  _242
REMARK   98  A    between atoms: _241  and  _244
REMARK   99  A    between atoms: _244  and  _245
REMARK  100  A    between atoms: _245  and  _246
REMARK  101  A    between atoms: _246  and  _247
REMARK  102  A    between atoms: _256  and  _258
REMARK  103  A    between atoms: _258  and  _259
REMARK  104  A    between atoms: _258  and  _261
REMARK  105  A    between atoms: _261  and  _262
REMARK  106  A    between atoms: _265  and  _267
REMARK  107  A    between atoms: _267  and  _268
REMARK  108  A    between atoms: _267  and  _270
REMARK  109  A    between atoms: _270  and  _271
REMARK  110  A    between atoms: _271  and  _272
REMARK  111  A    between atoms: _272  and  _273
REMARK  112  A    between atoms: _282  and  _284
REMARK  113  A    between atoms: _284  and  _285
REMARK  114  A    between atoms: _284  and  _287
REMARK  115  A    between atoms: _287  and  _288
REMARK  116  A    between atoms: _294  and  _296
REMARK  117  A    between atoms: _296  and  _297
REMARK  118  A    between atoms: _296  and  _299
REMARK  119  A    between atoms: _299  and  _300
REMARK  120  A    between atoms: _303  and  _305
REMARK  121  A    between atoms: _305  and  _306
REMARK  122  A    between atoms: _305  and  _308
REMARK  123  A    between atoms: _308  and  _309
REMARK  124  A    between atoms: _312  and  _314
REMARK  125  A    between atoms: _314  and  _315
REMARK  126  A    between atoms: _314  and  _317
REMARK  127  A    between atoms: _317  and  _318
REMARK  128  A    between atoms: _321  and  _323
REMARK  129  A    between atoms: _323  and  _324
REMARK  130  A    between atoms: _323  and  _326
REMARK  131  A    between atoms: _326  and  _327
REMARK  132  A    between atoms: _330  and  _332
REMARK  133  A    between atoms: _332  and  _333
REMARK  134  A    between atoms: _335  and  _337
REMARK  135  A    between atoms: _337  and  _338
REMARK  136  A    between atoms: _341  and  _343
REMARK  137  A    between atoms: _343  and  _344
REMARK  138  A    between atoms: _343  and  _346
REMARK  139  A    between atoms: _346  and  _347
REMARK  140  A    between atoms: _350  and  _352
REMARK  141  A    between atoms: _352  and  _353
REMARK  142  A    between atoms: _352  and  _355
REMARK  143  A    between atoms: _355  and  _356
REMARK  144  A    between atoms: _361  and  _363
REMARK  145  A    between atoms: _363  and  _364
REMARK  146  A    between atoms: _363  and  _366
REMARK  147  A    between atoms: _366  and  _367
REMARK  148  A    between atoms: _370  and  _372
REMARK  149  A    between atoms: _372  and  _373
REMARK  150  A    between atoms: _372  and  _375
REMARK  151  A    between atoms: _375  and  _376
REMARK  152  A    between atoms: _379  and  _381
REMARK  153  A    between atoms: _381  and  _382
REMARK  154  A    between atoms: _381  and  _384
REMARK  155  A    between atoms: _384  and  _385
REMARK  156  A    between atoms: _385  and  _386
REMARK  157  A    between atoms: _388  and  _390
REMARK  158  A    between atoms: _390  and  _391
REMARK  159  A    between atoms: _390  and  _393
REMARK  160  A    between atoms: _396  and  _398
REMARK  161  A    between atoms: _398  and  _399
REMARK  162  A    between atoms: _401  and  _403
REMARK  163  A    between atoms: _403  and  _404
REMARK  164  A    between atoms: _406  and  _408
REMARK  165  A    between atoms: _408  and  _409
REMARK  166  A    between atoms: _408  and  _411
REMARK  167  A    between atoms: _411  and  _412
REMARK  168  A    between atoms: _415  and  _417
REMARK  169  A    between atoms: _417  and  _418
REMARK  170  A    between atoms: _420  and  _422
REMARK  171  A    between atoms: _422  and  _423
REMARK  172  A    between atoms: _425  and  _427
REMARK  173  A    between atoms: _427  and  _428
REMARK  174  A    between atoms: _427  and  _430
REMARK  175  A    between atoms: _430  and  _431
REMARK  176  A    between atoms: _437  and  _439
REMARK  177  A    between atoms: _439  and  _440
REMARK  178  A    between atoms: _439  and  _442
REMARK  179  A    between atoms: _442  and  _443
REMARK  180  A    between atoms: _446  and  _448
REMARK  181  A    between atoms: _448  and  _449
REMARK  182  A    between atoms: _448  and  _451
REMARK  183  A    between atoms: _454  and  _456
REMARK  184  A    between atoms: _456  and  _457
REMARK  185  A    between atoms: _456  and  _459
REMARK  186  A    between atoms: _459  and  _460
REMARK  187  A    between atoms: _463  and  _465
REMARK  188  A    between atoms: _465  and  _466
REMARK  189  A    between atoms: _465  and  _468
REMARK  190  A    between atoms: _468  and  _469
REMARK  191  A    between atoms: _473  and  _474
REMARK  192  A    between atoms: _479  and  _481
REMARK  193  A    between atoms: _481  and  _482
REMARK  194  A    between atoms: _481  and  _484
REMARK  195  A    between atoms: _487  and  _489
REMARK  196  A    between atoms: _489  and  _490
REMARK  197  A    between atoms: _489  and  _492
REMARK  198  A    between atoms: _492  and  _493
REMARK  199  A    between atoms: _498  and  _500
REMARK  200  A    between atoms: _500  and  _501
REMARK  201  A    between atoms: _500  and  _503
REMARK  202  A    between atoms: _506  and  _508
REMARK  203  A    between atoms: _508  and  _509
REMARK  204  A    between atoms: _508  and  _511
REMARK  205  A    between atoms: _511  and  _512
REMARK  206  A    between atoms: _515  and  _517
REMARK  207  A    between atoms: _517  and  _518
REMARK  208  A    between atoms: _520  and  _522
REMARK  209  A    between atoms: _522  and  _523
REMARK  210  A    between atoms: _522  and  _525
REMARK  211  A    between atoms: _525  and  _526
REMARK  212  A    between atoms: _526  and  _527
REMARK  213  A    between atoms: _527  and  _528
REMARK  214  A    between atoms: _537  and  _539
REMARK  215  A    between atoms: _539  and  _540
REMARK  216  A    between atoms: _539  and  _542
REMARK  217  A    between atoms: _542  and  _543
REMARK                            x       y       z     vdW  Elec       q    Type
REMARK                         _______ _______ _______ _____ _____    ______ ____
ROOT
ATOM      1  O   HOH     1     -19.740   4.698 -10.968  0.00  0.00    +0.000 OA
ENDROOT
TORSDOF 0
REMARK  Name = ../refined-set-2016/4yhq/4yhq_pocket.pdb
REMARK  217 active torsions:
REMARK  status: ('A' for Active; 'I' for Inactive)
REMARK    1  A    between atoms: _1  and  _3
REMARK    2  A    between atoms: _3  and  _4
REMARK    3  A    between atoms: _3  and  _6
REMARK    4  A    between atoms: _6  and  _7
REMARK    5  A    between atoms: _7  and  _8
REMARK    6  A    between atoms: _8  and  _9
REMARK    7  A    between atoms: _18  and  _20
REMARK    8  A    between atoms: _20  and  _21
REMARK    9  A    between atoms: _20  and  _23
REMARK   10  A    between atoms: _23  and  _24
REMARK   11  A    between atoms: _30  and  _32
REMARK   12  A    between atoms: _32  and  _33
REMARK   13  A    between atoms: _32  and  _35
REMARK   14  A    between atoms: _35  and  _36
REMARK   15  A    between atoms: _39  and  _41
REMARK   16  A    between atoms: _41  and  _42
REMARK   17  A    between atoms: _41  and  _44
REMARK   18  A    between atoms: _44  and  _45
REMARK   19  A    between atoms: _48  and  _50
REMARK   20  A    between atoms: _50  and  _51
REMARK   21  A    between atoms: _50  and  _53
REMARK   22  A    between atoms: _53  and  _54
REMARK   23  A    between atoms: _57  and  _59
REMARK   24  A    between atoms: _59  and  _60
REMARK   25  A    between atoms: _59  and  _62
REMARK   26  A    between atoms: _62  and  _63
REMARK   27  A    between atoms: _66  and  _68
REMARK   28  A    between atoms: _68  and  _69
REMARK   29  A    between atoms: _71  and  _73
REMARK   30  A    between atoms: _73  and  _74
REMARK   31  A    between atoms: _77  and  _79
REMARK   32  A    between atoms: _79  and  _80
REMARK   33  A    between atoms: _79  and  _82
REMARK   34  A    between atoms: _82  and  _83
REMARK   35  A    between atoms: _86  and  _88
REMARK   36  A    between atoms: _88  and  _89
REMARK   37  A    between atoms: _88  and  _91
REMARK   38  A    between atoms: _91  and  _92
REMARK   39  A    between atoms: _97  and  _99
REMARK   40  A    between atoms: _99  and  _100
REMARK   41  A    between atoms: _99  and  _102
REMARK   42  A    between atoms: _102  and  _103
REMARK   43  A    between atoms: _106  and  _108
REMARK   44  A    between atoms: _108  and  _109
REMARK   45  A    between atoms: _108  and  _111
REMARK   46  A    between atoms: _111  and  _112
REMARK   47  A    between atoms: _115  and  _117
REMARK   48  A    between atoms: _117  and  _118
REMARK   49  A    between atoms: _117  and  _120
REMARK   50  A    between atoms: _120  and  _121
REMARK   51  A    between atoms: _121  and  _122
REMARK   52  A    between atoms: _124  and  _126
REMARK   53  A    between atoms: _126  and  _127
REMARK   54  A    between atoms: _126  and  _129
REMARK   55  A    between atoms: _132  and  _134
REMARK   56  A    between atoms: _134  and  _135
REMARK   57  A    between atoms: _137  and  _139
REMARK   58  A    between atoms: _139  and  _140
REMARK   59  A    between atoms: _142  and  _144
REMARK   60  A    between atoms: _144  and  _145
REMARK   61  A    between atoms: _144  and  _147
REMARK   62  A    between atoms: _147  and  _148
REMARK   63  A    between atoms: _151  and  _153
REMARK   64  A    between atoms: _153  and  _154
REMARK   65  A    between atoms: _156  and  _158
REMARK   66  A    between atoms: _158  and  _159
REMARK   67  A    between atoms: _161  and  _163
REMARK   68  A    between atoms: _163  and  _164
REMARK   69  A    between atoms: _163  and  _166
REMARK   70  A    between atoms: _166  and  _167
REMARK   71  A    between atoms: _173  and  _175
REMARK   72  A    between atoms: _175  and  _176
REMARK   73  A    between atoms: _175  and  _178
REMARK   74  A    between atoms: _178  and  _179
REMARK   75  A    between atoms: _182  and  _184
REMARK   76  A    between atoms: _184  and  _185
REMARK   77  A    between atoms: _184  and  _187
REMARK   78  A    between atoms: _187  and  _188
REMARK   79  A    between atoms: _191  and  _193
REMARK   80  A    between atoms: _193  and  _194
REMARK   81  A    between atoms: _193  and  _196
REMARK   82  A    between atoms: _196  and  _197
REMARK   83  A    between atoms: _201  and  _202
REMARK   84  A    between atoms: _207  and  _209
REMARK   85  A    between atoms: _209  and  _210
REMARK   86  A    between atoms: _209  and  _212
REMARK   87  A    between atoms: _215  and  _217
REMARK   88  A    between atoms: _217  and  _218
REMARK   89  A    between atoms: _217  and  _220
REMARK   90  A    between atoms: _220  and  _221
REMARK   91  A    between atoms: _226  and  _228
REMARK   92  A    between atoms: _228  and  _229
REMARK   93  A    between atoms: _228  and  _231
REMARK   94  A    between atoms: _234  and  _236
REMARK   95  A    between atoms: _236  and  _237
REMARK   96  A    between atoms: _239  and  _241
REMARK   97  A    between atoms: _241  and  _242
REMARK   98  A    between atoms: _241  and  _244
REMARK   99  A    between atoms: _244  and  _245
REMARK  100  A    between atoms: _245  and  _246
REMARK  101  A    between atoms: _246  and  _247
REMARK  102  A    between atoms: _256  and  _258
REMARK  103  A    between atoms: _258  and  _259
REMARK  104  A    between atoms: _258  and  _261
REMARK  105  A    between atoms: _261  and  _262
REMARK  106  A    between atoms: _265  and  _267
REMARK  107  A    between atoms: _267  and  _268
REMARK  108  A    between atoms: _267  and  _270
REMARK  109  A    between atoms: _270  and  _271
REMARK  110  A    between atoms: _271  and  _272
REMARK  111  A    between atoms: _272  and  _273
REMARK  112  A    between atoms: _282  and  _284
REMARK  113  A    between atoms: _284  and  _285
REMARK  114  A    between atoms: _284  and  _287
REMARK  115  A    between atoms: _287  and  _288
REMARK  116  A    between atoms: _294  and  _296
REMARK  117  A    between atoms: _296  and  _297
REMARK  118  A    between atoms: _296  and  _299
REMARK  119  A    between atoms: _299  and  _300
REMARK  120  A    between atoms: _303  and  _305
REMARK  121  A    between atoms: _305  and  _306
REMARK  122  A    between atoms: _305  and  _308
REMARK  123  A    between atoms: _308  and  _309
REMARK  124  A    between atoms: _312  and  _314
REMARK  125  A    between atoms: _314  and  _315
REMARK  126  A    between atoms: _314  and  _317
REMARK  127  A    between atoms: _317  and  _318
REMARK  128  A    between atoms: _321  and  _323
REMARK  129  A    between atoms: _323  and  _324
REMARK  130  A    between atoms: _323  and  _326
REMARK  131  A    between atoms: _326  and  _327
REMARK  132  A    between atoms: _330  and  _332
REMARK  133  A    between atoms: _332  and  _333
REMARK  134  A    between atoms: _335  and  _337
REMARK  135  A    between atoms: _337  and  _338
REMARK  136  A    between atoms: _341  and  _343
REMARK  137  A    between atoms: _343  and  _344
REMARK  138  A    between atoms: _343  and  _346
REMARK  139  A    between atoms: _346  and  _347
REMARK  140  A    between atoms: _350  and  _352
REMARK  141  A    between atoms: _352  and  _353
REMARK  142  A    between atoms: _352  and  _355
REMARK  143  A    between atoms: _355  and  _356
REMARK  144  A    between atoms: _361  and  _363
REMARK  145  A    between atoms: _363  and  _364
REMARK  146  A    between atoms: _363  and  _366
REMARK  147  A    between atoms: _366  and  _367
REMARK  148  A    between atoms: _370  and  _372
REMARK  149  A    between atoms: _372  and  _373
REMARK  150  A    between atoms: _372  and  _375
REMARK  151  A    between atoms: _375  and  _376
REMARK  152  A    between atoms: _379  and  _381
REMARK  153  A    between atoms: _381  and  _382
REMARK  154  A    between atoms: _381  and  _384
REMARK  155  A    between atoms: _384  and  _385
REMARK  156  A    between atoms: _385  and  _386
REMARK  157  A    between atoms: _388  and  _390
REMARK  158  A    between atoms: _390  and  _391
REMARK  159  A    between atoms: _390  and  _393
REMARK  160  A    between atoms: _396  and  _398
REMARK  161  A    between atoms: _398  and  _399
REMARK  162  A    between atoms: _401  and  _403
REMARK  163  A    between atoms: _403  and  _404
REMARK  164  A    between atoms: _406  and  _408
REMARK  165  A    between atoms: _408  and  _409
REMARK  166  A    between atoms: _408  and  _411
REMARK  167  A    between atoms: _411  and  _412
REMARK  168  A    between atoms: _415  and  _417
REMARK  169  A    between atoms: _417  and  _418
REMARK  170  A    between atoms: _420  and  _422
REMARK  171  A    between atoms: _422  and  _423
REMARK  172  A    between atoms: _425  and  _427
REMARK  173  A    between atoms: _427  and  _428
REMARK  174  A    between atoms: _427  and  _430
REMARK  175  A    between atoms: _430  and  _431
REMARK  176  A    between atoms: _437  and  _439
REMARK  177  A    between atoms: _439  and  _440
REMARK  178  A    between atoms: _439  and  _442
REMARK  179  A    between atoms: _442  and  _443
REMARK  180  A    between atoms: _446  and  _448
REMARK  181  A    between atoms: _448  and  _449
REMARK  182  A    between atoms: _448  and  _451
REMARK  183  A    between atoms: _454  and  _456
REMARK  184  A    between atoms: _456  and  _457
REMARK  185  A    between atoms: _456  and  _459
REMARK  186  A    between atoms: _459  and  _460
REMARK  187  A    between atoms: _463  and  _465
REMARK  188  A    between atoms: _465  and  _466
REMARK  189  A    between atoms: _465  and  _468
REMARK  190  A    between atoms: _468  and  _469
REMARK  191  A    between atoms: _473  and  _474
REMARK  192  A    between atoms: _479  and  _481
REMARK  193  A    between atoms: _481  and  _482
REMARK  194  A    between atoms: _481  and  _484
REMARK  195  A    between atoms: _487  and  _489
REMARK  196  A    between atoms: _489  and  _490
REMARK  197  A    between atoms: _489  and  _492
REMARK  198  A    between atoms: _492  and  _493
REMARK  199  A    between atoms: _498  and  _500
REMARK  200  A    between atoms: _500  and  _501
REMARK  201  A    between atoms: _500  and  _503
REMARK  202  A    between atoms: _506  and  _508
REMARK  203  A    between atoms: _508  and  _509
REMARK  204  A    between atoms: _508  and  _511
REMARK  205  A    between atoms: _511  and  _512
REMARK  206  A    between atoms: _515  and  _517
REMARK  207  A    between atoms: _517  and  _518
REMARK  208  A    between atoms: _520  and  _522
REMARK  209  A    between atoms: _522  and  _523
REMARK  210  A    between atoms: _522  and  _525
REMARK  211  A    between atoms: _525  and  _526
REMARK  212  A    between atoms: _526  and  _527
REMARK  213  A    between atoms: _527  and  _528
REMARK  214  A    between atoms: _537  and  _539
REMARK  215  A    between atoms: _539  and  _540
REMARK  216  A    between atoms: _539  and  _542
REMARK  217  A    between atoms: _542  and  _543
REMARK                            x       y       z     vdW  Elec       q    Type
REMARK                         _______ _______ _______ _____ _____    ______ ____
ROOT
ATOM      1  O   HOH     1     -12.065   6.299  -2.058  0.00  0.00    +0.000 OA
ENDROOT
TORSDOF 0
REMARK  Name = ../refined-set-2016/4yhq/4yhq_pocket.pdb
REMARK  217 active torsions:
REMARK  status: ('A' for Active; 'I' for Inactive)
REMARK    1  A    between atoms: _1  and  _3
REMARK    2  A    between atoms: _3  and  _4
REMARK    3  A    between atoms: _3  and  _6
REMARK    4  A    between atoms: _6  and  _7
REMARK    5  A    between atoms: _7  and  _8
REMARK    6  A    between atoms: _8  and  _9
REMARK    7  A    between atoms: _18  and  _20
REMARK    8  A    between atoms: _20  and  _21
REMARK    9  A    between atoms: _20  and  _23
REMARK   10  A    between atoms: _23  and  _24
REMARK   11  A    between atoms: _30  and  _32
REMARK   12  A    between atoms: _32  and  _33
REMARK   13  A    between atoms: _32  and  _35
REMARK   14  A    between atoms: _35  and  _36
REMARK   15  A    between atoms: _39  and  _41
REMARK   16  A    between atoms: _41  and  _42
REMARK   17  A    between atoms: _41  and  _44
REMARK   18  A    between atoms: _44  and  _45
REMARK   19  A    between atoms: _48  and  _50
REMARK   20  A    between atoms: _50  and  _51
REMARK   21  A    between atoms: _50  and  _53
REMARK   22  A    between atoms: _53  and  _54
REMARK   23  A    between atoms: _57  and  _59
REMARK   24  A    between atoms: _59  and  _60
REMARK   25  A    between atoms: _59  and  _62
REMARK   26  A    between atoms: _62  and  _63
REMARK   27  A    between atoms: _66  and  _68
REMARK   28  A    between atoms: _68  and  _69
REMARK   29  A    between atoms: _71  and  _73
REMARK   30  A    between atoms: _73  and  _74
REMARK   31  A    between atoms: _77  and  _79
REMARK   32  A    between atoms: _79  and  _80
REMARK   33  A    between atoms: _79  and  _82
REMARK   34  A    between atoms: _82  and  _83
REMARK   35  A    between atoms: _86  and  _88
REMARK   36  A    between atoms: _88  and  _89
REMARK   37  A    between atoms: _88  and  _91
REMARK   38  A    between atoms: _91  and  _92
REMARK   39  A    between atoms: _97  and  _99
REMARK   40  A    between atoms: _99  and  _100
REMARK   41  A    between atoms: _99  and  _102
REMARK   42  A    between atoms: _102  and  _103
REMARK   43  A    between atoms: _106  and  _108
REMARK   44  A    between atoms: _108  and  _109
REMARK   45  A    between atoms: _108  and  _111
REMARK   46  A    between atoms: _111  and  _112
REMARK   47  A    between atoms: _115  and  _117
REMARK   48  A    between atoms: _117  and  _118
REMARK   49  A    between atoms: _117  and  _120
REMARK   50  A    between atoms: _120  and  _121
REMARK   51  A    between atoms: _121  and  _122
REMARK   52  A    between atoms: _124  and  _126
REMARK   53  A    between atoms: _126  and  _127
REMARK   54  A    between atoms: _126  and  _129
REMARK   55  A    between atoms: _132  and  _134
REMARK   56  A    between atoms: _134  and  _135
REMARK   57  A    between atoms: _137  and  _139
REMARK   58  A    between atoms: _139  and  _140
REMARK   59  A    between atoms: _142  and  _144
REMARK   60  A    between atoms: _144  and  _145
REMARK   61  A    between atoms: _144  and  _147
REMARK   62  A    between atoms: _147  and  _148
REMARK   63  A    between atoms: _151  and  _153
REMARK   64  A    between atoms: _153  and  _154
REMARK   65  A    between atoms: _156  and  _158
REMARK   66  A    between atoms: _158  and  _159
REMARK   67  A    between atoms: _161  and  _163
REMARK   68  A    between atoms: _163  and  _164
REMARK   69  A    between atoms: _163  and  _166
REMARK   70  A    between atoms: _166  and  _167
REMARK   71  A    between atoms: _173  and  _175
REMARK   72  A    between atoms: _175  and  _176
REMARK   73  A    between atoms: _175  and  _178
REMARK   74  A    between atoms: _178  and  _179
REMARK   75  A    between atoms: _182  and  _184
REMARK   76  A    between atoms: _184  and  _185
REMARK   77  A    between atoms: _184  and  _187
REMARK   78  A    between atoms: _187  and  _188
REMARK   79  A    between atoms: _191  and  _193
REMARK   80  A    between atoms: _193  and  _194
REMARK   81  A    between atoms: _193  and  _196
REMARK   82  A    between atoms: _196  and  _197
REMARK   83  A    between atoms: _201  and  _202
REMARK   84  A    between atoms: _207  and  _209
REMARK   85  A    between atoms: _209  and  _210
REMARK   86  A    between atoms: _209  and  _212
REMARK   87  A    between atoms: _215  and  _217
REMARK   88  A    between atoms: _217  and  _218
REMARK   89  A    between atoms: _217  and  _220
REMARK   90  A    between atoms: _220  and  _221
REMARK   91  A    between atoms: _226  and  _228
REMARK   92  A    between atoms: _228  and  _229
REMARK   93  A    between atoms: _228  and  _231
REMARK   94  A    between atoms: _234  and  _236
REMARK   95  A    between atoms: _236  and  _237
REMARK   96  A    between atoms: _239  and  _241
REMARK   97  A    between atoms: _241  and  _242
REMARK   98  A    between atoms: _241  and  _244
REMARK   99  A    between atoms: _244  and  _245
REMARK  100  A    between atoms: _245  and  _246
REMARK  101  A    between atoms: _246  and  _247
REMARK  102  A    between atoms: _256  and  _258
REMARK  103  A    between atoms: _258  and  _259
REMARK  104  A    between atoms: _258  and  _261
REMARK  105  A    between atoms: _261  and  _262
REMARK  106  A    between atoms: _265  and  _267
REMARK  107  A    between atoms: _267  and  _268
REMARK  108  A    between atoms: _267  and  _270
REMARK  109  A    between atoms: _270  and  _271
REMARK  110  A    between atoms: _271  and  _272
REMARK  111  A    between atoms: _272  and  _273
REMARK  112  A    between atoms: _282  and  _284
REMARK  113  A    between atoms: _284  and  _285
REMARK  114  A    between atoms: _284  and  _287
REMARK  115  A    between atoms: _287  and  _288
REMARK  116  A    between atoms: _294  and  _296
REMARK  117  A    between atoms: _296  and  _297
REMARK  118  A    between atoms: _296  and  _299
REMARK  119  A    between atoms: _299  and  _300
REMARK  120  A    between atoms: _303  and  _305
REMARK  121  A    between atoms: _305  and  _306
REMARK  122  A    between atoms: _305  and  _308
REMARK  123  A    between atoms: _308  and  _309
REMARK  124  A    between atoms: _312  and  _314
REMARK  125  A    between atoms: _314  and  _315
REMARK  126  A    between atoms: _314  and  _317
REMARK  127  A    between atoms: _317  and  _318
REMARK  128  A    between atoms: _321  and  _323
REMARK  129  A    between atoms: _323  and  _324
REMARK  130  A    between atoms: _323  and  _326
REMARK  131  A    between atoms: _326  and  _327
REMARK  132  A    between atoms: _330  and  _332
REMARK  133  A    between atoms: _332  and  _333
REMARK  134  A    between atoms: _335  and  _337
REMARK  135  A    between atoms: _337  and  _338
REMARK  136  A    between atoms: _341  and  _343
REMARK  137  A    between atoms: _343  and  _344
REMARK  138  A    between atoms: _343  and  _346
REMARK  139  A    between atoms: _346  and  _347
REMARK  140  A    between atoms: _350  and  _352
REMARK  141  A    between atoms: _352  and  _353
REMARK  142  A    between atoms: _352  and  _355
REMARK  143  A    between atoms: _355  and  _356
REMARK  144  A    between atoms: _361  and  _363
REMARK  145  A    between atoms: _363  and  _364
REMARK  146  A    between atoms: _363  and  _366
REMARK  147  A    between atoms: _366  and  _367
REMARK  148  A    between atoms: _370  and  _372
REMARK  149  A    between atoms: _372  and  _373
REMARK  150  A    between atoms: _372  and  _375
REMARK  151  A    between atoms: _375  and  _376
REMARK  152  A    between atoms: _379  and  _381
REMARK  153  A    between atoms: _381  and  _382
REMARK  154  A    between atoms: _381  and  _384
REMARK  155  A    between atoms: _384  and  _385
REMARK  156  A    between atoms: _385  and  _386
REMARK  157  A    between atoms: _388  and  _390
REMARK  158  A    between atoms: _390  and  _391
REMARK  159  A    between atoms: _390  and  _393
REMARK  160  A    between atoms: _396  and  _398
REMARK  161  A    between atoms: _398  and  _399
REMARK  162  A    between atoms: _401  and  _403
REMARK  163  A    between atoms: _403  and  _404
REMARK  164  A    between atoms: _406  and  _408
REMARK  165  A    between atoms: _408  and  _409
REMARK  166  A    between atoms: _408  and  _411
REMARK  167  A    between atoms: _411  and  _412
REMARK  168  A    between atoms: _415  and  _417
REMARK  169  A    between atoms: _417  and  _418
REMARK  170  A    between atoms: _420  and  _422
REMARK  171  A    between atoms: _422  and  _423
REMARK  172  A    between atoms: _425  and  _427
REMARK  173  A    between atoms: _427  and  _428
REMARK  174  A    between atoms: _427  and  _430
REMARK  175  A    between atoms: _430  and  _431
REMARK  176  A    between atoms: _437  and  _439
REMARK  177  A    between atoms: _439  and  _440
REMARK  178  A    between atoms: _439  and  _442
REMARK  179  A    between atoms: _442  and  _443
REMARK  180  A    between atoms: _446  and  _448
REMARK  181  A    between atoms: _448  and  _449
REMARK  182  A    between atoms: _448  and  _451
REMARK  183  A    between atoms: _454  and  _456
REMARK  184  A    between atoms: _456  and  _457
REMARK  185  A    between atoms: _456  and  _459
REMARK  186  A    between atoms: _459  and  _460
REMARK  187  A    between atoms: _463  and  _465
REMARK  188  A    between atoms: _465  and  _466
REMARK  189  A    between atoms: _465  and  _468
REMARK  190  A    between atoms: _468  and  _469
REMARK  191  A    between atoms: _473  and  _474
REMARK  192  A    between atoms: _479  and  _481
REMARK  193  A    between atoms: _481  and  _482
REMARK  194  A    between atoms: _481  and  _484
REMARK  195  A    between atoms: _487  and  _489
REMARK  196  A    between atoms: _489  and  _490
REMARK  197  A    between atoms: _489  and  _492
REMARK  198  A    between atoms: _492  and  _493
REMARK  199  A    between atoms: _498  and  _500
REMARK  200  A    between atoms: _500  and  _501
REMARK  201  A    between atoms: _500  and  _503
REMARK  202  A    between atoms: _506  and  _508
REMARK  203  A    between atoms: _508  and  _509
REMARK  204  A    between atoms: _508  and  _511
REMARK  205  A    between atoms: _511  and  _512
REMARK  206  A    between atoms: _515  and  _517
REMARK  207  A    between atoms: _517  and  _518
REMARK  208  A    between atoms: _520  and  _522
REMARK  209  A    between atoms: _522  and  _523
REMARK  210  A    between atoms: _522  and  _525
REMARK  211  A    between atoms: _525  and  _526
REMARK  212  A    between atoms: _526  and  _527
REMARK  213  A    between atoms: _527  and  _528
REMARK  214  A    between atoms: _537  and  _539
REMARK  215  A    between atoms: _539  and  _540
REMARK  216  A    between atoms: _539  and  _542
REMARK  217  A    between atoms: _542  and  _543
REMARK                            x       y       z     vdW  Elec       q    Type
REMARK                         _______ _______ _______ _____ _____    ______ ____
ROOT
ATOM      1  O   HOH     1     -20.131  -2.928 -11.726  0.00  0.00    +0.000 OA
ENDROOT
TORSDOF 0
REMARK  Name = ../refined-set-2016/4yhq/4yhq_pocket.pdb
REMARK  217 active torsions:
REMARK  status: ('A' for Active; 'I' for Inactive)
REMARK    1  A    between atoms: _1  and  _3
REMARK    2  A    between atoms: _3  and  _4
REMARK    3  A    between atoms: _3  and  _6
REMARK    4  A    between atoms: _6  and  _7
REMARK    5  A    between atoms: _7  and  _8
REMARK    6  A    between atoms: _8  and  _9
REMARK    7  A    between atoms: _18  and  _20
REMARK    8  A    between atoms: _20  and  _21
REMARK    9  A    between atoms: _20  and  _23
REMARK   10  A    between atoms: _23  and  _24
REMARK   11  A    between atoms: _30  and  _32
REMARK   12  A    between atoms: _32  and  _33
REMARK   13  A    between atoms: _32  and  _35
REMARK   14  A    between atoms: _35  and  _36
REMARK   15  A    between atoms: _39  and  _41
REMARK   16  A    between atoms: _41  and  _42
REMARK   17  A    between atoms: _41  and  _44
REMARK   18  A    between atoms: _44  and  _45
REMARK   19  A    between atoms: _48  and  _50
REMARK   20  A    between atoms: _50  and  _51
REMARK   21  A    between atoms: _50  and  _53
REMARK   22  A    between atoms: _53  and  _54
REMARK   23  A    between atoms: _57  and  _59
REMARK   24  A    between atoms: _59  and  _60
REMARK   25  A    between atoms: _59  and  _62
REMARK   26  A    between atoms: _62  and  _63
REMARK   27  A    between atoms: _66  and  _68
REMARK   28  A    between atoms: _68  and  _69
REMARK   29  A    between atoms: _71  and  _73
REMARK   30  A    between atoms: _73  and  _74
REMARK   31  A    between atoms: _77  and  _79
REMARK   32  A    between atoms: _79  and  _80
REMARK   33  A    between atoms: _79  and  _82
REMARK   34  A    between atoms: _82  and  _83
REMARK   35  A    between atoms: _86  and  _88
REMARK   36  A    between atoms: _88  and  _89
REMARK   37  A    between atoms: _88  and  _91
REMARK   38  A    between atoms: _91  and  _92
REMARK   39  A    between atoms: _97  and  _99
REMARK   40  A    between atoms: _99  and  _100
REMARK   41  A    between atoms: _99  and  _102
REMARK   42  A    between atoms: _102  and  _103
REMARK   43  A    between atoms: _106  and  _108
REMARK   44  A    between atoms: _108  and  _109
REMARK   45  A    between atoms: _108  and  _111
REMARK   46  A    between atoms: _111  and  _112
REMARK   47  A    between atoms: _115  and  _117
REMARK   48  A    between atoms: _117  and  _118
REMARK   49  A    between atoms: _117  and  _120
REMARK   50  A    between atoms: _120  and  _121
REMARK   51  A    between atoms: _121  and  _122
REMARK   52  A    between atoms: _124  and  _126
REMARK   53  A    between atoms: _126  and  _127
REMARK   54  A    between atoms: _126  and  _129
REMARK   55  A    between atoms: _132  and  _134
REMARK   56  A    between atoms: _134  and  _135
REMARK   57  A    between atoms: _137  and  _139
REMARK   58  A    between atoms: _139  and  _140
REMARK   59  A    between atoms: _142  and  _144
REMARK   60  A    between atoms: _144  and  _145
REMARK   61  A    between atoms: _144  and  _147
REMARK   62  A    between atoms: _147  and  _148
REMARK   63  A    between atoms: _151  and  _153
REMARK   64  A    between atoms: _153  and  _154
REMARK   65  A    between atoms: _156  and  _158
REMARK   66  A    between atoms: _158  and  _159
REMARK   67  A    between atoms: _161  and  _163
REMARK   68  A    between atoms: _163  and  _164
REMARK   69  A    between atoms: _163  and  _166
REMARK   70  A    between atoms: _166  and  _167
REMARK   71  A    between atoms: _173  and  _175
REMARK   72  A    between atoms: _175  and  _176
REMARK   73  A    between atoms: _175  and  _178
REMARK   74  A    between atoms: _178  and  _179
REMARK   75  A    between atoms: _182  and  _184
REMARK   76  A    between atoms: _184  and  _185
REMARK   77  A    between atoms: _184  and  _187
REMARK   78  A    between atoms: _187  and  _188
REMARK   79  A    between atoms: _191  and  _193
REMARK   80  A    between atoms: _193  and  _194
REMARK   81  A    between atoms: _193  and  _196
REMARK   82  A    between atoms: _196  and  _197
REMARK   83  A    between atoms: _201  and  _202
REMARK   84  A    between atoms: _207  and  _209
REMARK   85  A    between atoms: _209  and  _210
REMARK   86  A    between atoms: _209  and  _212
REMARK   87  A    between atoms: _215  and  _217
REMARK   88  A    between atoms: _217  and  _218
REMARK   89  A    between atoms: _217  and  _220
REMARK   90  A    between atoms: _220  and  _221
REMARK   91  A    between atoms: _226  and  _228
REMARK   92  A    between atoms: _228  and  _229
REMARK   93  A    between atoms: _228  and  _231
REMARK   94  A    between atoms: _234  and  _236
REMARK   95  A    between atoms: _236  and  _237
REMARK   96  A    between atoms: _239  and  _241
REMARK   97  A    between atoms: _241  and  _242
REMARK   98  A    between atoms: _241  and  _244
REMARK   99  A    between atoms: _244  and  _245
REMARK  100  A    between atoms: _245  and  _246
REMARK  101  A    between atoms: _246  and  _247
REMARK  102  A    between atoms: _256  and  _258
REMARK  103  A    between atoms: _258  and  _259
REMARK  104  A    between atoms: _258  and  _261
REMARK  105  A    between atoms: _261  and  _262
REMARK  106  A    between atoms: _265  and  _267
REMARK  107  A    between atoms: _267  and  _268
REMARK  108  A    between atoms: _267  and  _270
REMARK  109  A    between atoms: _270  and  _271
REMARK  110  A    between atoms: _271  and  _272
REMARK  111  A    between atoms: _272  and  _273
REMARK  112  A    between atoms: _282  and  _284
REMARK  113  A    between atoms: _284  and  _285
REMARK  114  A    between atoms: _284  and  _287
REMARK  115  A    between atoms: _287  and  _288
REMARK  116  A    between atoms: _294  and  _296
REMARK  117  A    between atoms: _296  and  _297
REMARK  118  A    between atoms: _296  and  _299
REMARK  119  A    between atoms: _299  and  _300
REMARK  120  A    between atoms: _303  and  _305
REMARK  121  A    between atoms: _305  and  _306
REMARK  122  A    between atoms: _305  and  _308
REMARK  123  A    between atoms: _308  and  _309
REMARK  124  A    between atoms: _312  and  _314
REMARK  125  A    between atoms: _314  and  _315
REMARK  126  A    between atoms: _314  and  _317
REMARK  127  A    between atoms: _317  and  _318
REMARK  128  A    between atoms: _321  and  _323
REMARK  129  A    between atoms: _323  and  _324
REMARK  130  A    between atoms: _323  and  _326
REMARK  131  A    between atoms: _326  and  _327
REMARK  132  A    between atoms: _330  and  _332
REMARK  133  A    between atoms: _332  and  _333
REMARK  134  A    between atoms: _335  and  _337
REMARK  135  A    between atoms: _337  and  _338
REMARK  136  A    between atoms: _341  and  _343
REMARK  137  A    between atoms: _343  and  _344
REMARK  138  A    between atoms: _343  and  _346
REMARK  139  A    between atoms: _346  and  _347
REMARK  140  A    between atoms: _350  and  _352
REMARK  141  A    between atoms: _352  and  _353
REMARK  142  A    between atoms: _352  and  _355
REMARK  143  A    between atoms: _355  and  _356
REMARK  144  A    between atoms: _361  and  _363
REMARK  145  A    between atoms: _363  and  _364
REMARK  146  A    between atoms: _363  and  _366
REMARK  147  A    between atoms: _366  and  _367
REMARK  148  A    between atoms: _370  and  _372
REMARK  149  A    between atoms: _372  and  _373
REMARK  150  A    between atoms: _372  and  _375
REMARK  151  A    between atoms: _375  and  _376
REMARK  152  A    between atoms: _379  and  _381
REMARK  153  A    between atoms: _381  and  _382
REMARK  154  A    between atoms: _381  and  _384
REMARK  155  A    between atoms: _384  and  _385
REMARK  156  A    between atoms: _385  and  _386
REMARK  157  A    between atoms: _388  and  _390
REMARK  158  A    between atoms: _390  and  _391
REMARK  159  A    between atoms: _390  and  _393
REMARK  160  A    between atoms: _396  and  _398
REMARK  161  A    between atoms: _398  and  _399
REMARK  162  A    between atoms: _401  and  _403
REMARK  163  A    between atoms: _403  and  _404
REMARK  164  A    between atoms: _406  and  _408
REMARK  165  A    between atoms: _408  and  _409
REMARK  166  A    between atoms: _408  and  _411
REMARK  167  A    between atoms: _411  and  _412
REMARK  168  A    between atoms: _415  and  _417
REMARK  169  A    between atoms: _417  and  _418
REMARK  170  A    between atoms: _420  and  _422
REMARK  171  A    between atoms: _422  and  _423
REMARK  172  A    between atoms: _425  and  _427
REMARK  173  A    between atoms: _427  and  _428
REMARK  174  A    between atoms: _427  and  _430
REMARK  175  A    between atoms: _430  and  _431
REMARK  176  A    between atoms: _437  and  _439
REMARK  177  A    between atoms: _439  and  _440
REMARK  178  A    between atoms: _439  and  _442
REMARK  179  A    between atoms: _442  and  _443
REMARK  180  A    between atoms: _446  and  _448
REMARK  181  A    between atoms: _448  and  _449
REMARK  182  A    between atoms: _448  and  _451
REMARK  183  A    between atoms: _454  and  _456
REMARK  184  A    between atoms: _456  and  _457
REMARK  185  A    between atoms: _456  and  _459
REMARK  186  A    between atoms: _459  and  _460
REMARK  187  A    between atoms: _463  and  _465
REMARK  188  A    between atoms: _465  and  _466
REMARK  189  A    between atoms: _465  and  _468
REMARK  190  A    between atoms: _468  and  _469
REMARK  191  A    between atoms: _473  and  _474
REMARK  192  A    between atoms: _479  and  _481
REMARK  193  A    between atoms: _481  and  _482
REMARK  194  A    between atoms: _481  and  _484
REMARK  195  A    between atoms: _487  and  _489
REMARK  196  A    between atoms: _489  and  _490
REMARK  197  A    between atoms: _489  and  _492
REMARK  198  A    between atoms: _492  and  _493
REMARK  199  A    between atoms: _498  and  _500
REMARK  200  A    between atoms: _500  and  _501
REMARK  201  A    between atoms: _500  and  _503
REMARK  202  A    between atoms: _506  and  _508
REMARK  203  A    between atoms: _508  and  _509
REMARK  204  A    between atoms: _508  and  _511
REMARK  205  A    between atoms: _511  and  _512
REMARK  206  A    between atoms: _515  and  _517
REMARK  207  A    between atoms: _517  and  _518
REMARK  208  A    between atoms: _520  and  _522
REMARK  209  A    between atoms: _522  and  _523
REMARK  210  A    between atoms: _522  and  _525
REMARK  211  A    between atoms: _525  and  _526
REMARK  212  A    between atoms: _526  and  _527
REMARK  213  A    between atoms: _527  and  _528
REMARK  214  A    between atoms: _537  and  _539
REMARK  215  A    between atoms: _539  and  _540
REMARK  216  A    between atoms: _539  and  _542
REMARK  217  A    between atoms: _542  and  _543
REMARK                            x       y       z     vdW  Elec       q    Type
REMARK                         _______ _______ _______ _____ _____    ______ ____
ROOT
ATOM      1  O   HOH     1     -23.670   5.005  -2.888  0.00  0.00    +0.000 OA
ENDROOT
TORSDOF 0
REMARK  Name = ../refined-set-2016/4yhq/4yhq_pocket.pdb
REMARK  217 active torsions:
REMARK  status: ('A' for Active; 'I' for Inactive)
REMARK    1  A    between atoms: _1  and  _3
REMARK    2  A    between atoms: _3  and  _4
REMARK    3  A    between atoms: _3  and  _6
REMARK    4  A    between atoms: _6  and  _7
REMARK    5  A    between atoms: _7  and  _8
REMARK    6  A    between atoms: _8  and  _9
REMARK    7  A    between atoms: _18  and  _20
REMARK    8  A    between atoms: _20  and  _21
REMARK    9  A    between atoms: _20  and  _23
REMARK   10  A    between atoms: _23  and  _24
REMARK   11  A    between atoms: _30  and  _32
REMARK   12  A    between atoms: _32  and  _33
REMARK   13  A    between atoms: _32  and  _35
REMARK   14  A    between atoms: _35  and  _36
REMARK   15  A    between atoms: _39  and  _41
REMARK   16  A    between atoms: _41  and  _42
REMARK   17  A    between atoms: _41  and  _44
REMARK   18  A    between atoms: _44  and  _45
REMARK   19  A    between atoms: _48  and  _50
REMARK   20  A    between atoms: _50  and  _51
REMARK   21  A    between atoms: _50  and  _53
REMARK   22  A    between atoms: _53  and  _54
REMARK   23  A    between atoms: _57  and  _59
REMARK   24  A    between atoms: _59  and  _60
REMARK   25  A    between atoms: _59  and  _62
REMARK   26  A    between atoms: _62  and  _63
REMARK   27  A    between atoms: _66  and  _68
REMARK   28  A    between atoms: _68  and  _69
REMARK   29  A    between atoms: _71  and  _73
REMARK   30  A    between atoms: _73  and  _74
REMARK   31  A    between atoms: _77  and  _79
REMARK   32  A    between atoms: _79  and  _80
REMARK   33  A    between atoms: _79  and  _82
REMARK   34  A    between atoms: _82  and  _83
REMARK   35  A    between atoms: _86  and  _88
REMARK   36  A    between atoms: _88  and  _89
REMARK   37  A    between atoms: _88  and  _91
REMARK   38  A    between atoms: _91  and  _92
REMARK   39  A    between atoms: _97  and  _99
REMARK   40  A    between atoms: _99  and  _100
REMARK   41  A    between atoms: _99  and  _102
REMARK   42  A    between atoms: _102  and  _103
REMARK   43  A    between atoms: _106  and  _108
REMARK   44  A    between atoms: _108  and  _109
REMARK   45  A    between atoms: _108  and  _111
REMARK   46  A    between atoms: _111  and  _112
REMARK   47  A    between atoms: _115  and  _117
REMARK   48  A    between atoms: _117  and  _118
REMARK   49  A    between atoms: _117  and  _120
REMARK   50  A    between atoms: _120  and  _121
REMARK   51  A    between atoms: _121  and  _122
REMARK   52  A    between atoms: _124  and  _126
REMARK   53  A    between atoms: _126  and  _127
REMARK   54  A    between atoms: _126  and  _129
REMARK   55  A    between atoms: _132  and  _134
REMARK   56  A    between atoms: _134  and  _135
REMARK   57  A    between atoms: _137  and  _139
REMARK   58  A    between atoms: _139  and  _140
REMARK   59  A    between atoms: _142  and  _144
REMARK   60  A    between atoms: _144  and  _145
REMARK   61  A    between atoms: _144  and  _147
REMARK   62  A    between atoms: _147  and  _148
REMARK   63  A    between atoms: _151  and  _153
REMARK   64  A    between atoms: _153  and  _154
REMARK   65  A    between atoms: _156  and  _158
REMARK   66  A    between atoms: _158  and  _159
REMARK   67  A    between atoms: _161  and  _163
REMARK   68  A    between atoms: _163  and  _164
REMARK   69  A    between atoms: _163  and  _166
REMARK   70  A    between atoms: _166  and  _167
REMARK   71  A    between atoms: _173  and  _175
REMARK   72  A    between atoms: _175  and  _176
REMARK   73  A    between atoms: _175  and  _178
REMARK   74  A    between atoms: _178  and  _179
REMARK   75  A    between atoms: _182  and  _184
REMARK   76  A    between atoms: _184  and  _185
REMARK   77  A    between atoms: _184  and  _187
REMARK   78  A    between atoms: _187  and  _188
REMARK   79  A    between atoms: _191  and  _193
REMARK   80  A    between atoms: _193  and  _194
REMARK   81  A    between atoms: _193  and  _196
REMARK   82  A    between atoms: _196  and  _197
REMARK   83  A    between atoms: _201  and  _202
REMARK   84  A    between atoms: _207  and  _209
REMARK   85  A    between atoms: _209  and  _210
REMARK   86  A    between atoms: _209  and  _212
REMARK   87  A    between atoms: _215  and  _217
REMARK   88  A    between atoms: _217  and  _218
REMARK   89  A    between atoms: _217  and  _220
REMARK   90  A    between atoms: _220  and  _221
REMARK   91  A    between atoms: _226  and  _228
REMARK   92  A    between atoms: _228  and  _229
REMARK   93  A    between atoms: _228  and  _231
REMARK   94  A    between atoms: _234  and  _236
REMARK   95  A    between atoms: _236  and  _237
REMARK   96  A    between atoms: _239  and  _241
REMARK   97  A    between atoms: _241  and  _242
REMARK   98  A    between atoms: _241  and  _244
REMARK   99  A    between atoms: _244  and  _245
REMARK  100  A    between atoms: _245  and  _246
REMARK  101  A    between atoms: _246  and  _247
REMARK  102  A    between atoms: _256  and  _258
REMARK  103  A    between atoms: _258  and  _259
REMARK  104  A    between atoms: _258  and  _261
REMARK  105  A    between atoms: _261  and  _262
REMARK  106  A    between atoms: _265  and  _267
REMARK  107  A    between atoms: _267  and  _268
REMARK  108  A    between atoms: _267  and  _270
REMARK  109  A    between atoms: _270  and  _271
REMARK  110  A    between atoms: _271  and  _272
REMARK  111  A    between atoms: _272  and  _273
REMARK  112  A    between atoms: _282  and  _284
REMARK  113  A    between atoms: _284  and  _285
REMARK  114  A    between atoms: _284  and  _287
REMARK  115  A    between atoms: _287  and  _288
REMARK  116  A    between atoms: _294  and  _296
REMARK  117  A    between atoms: _296  and  _297
REMARK  118  A    between atoms: _296  and  _299
REMARK  119  A    between atoms: _299  and  _300
REMARK  120  A    between atoms: _303  and  _305
REMARK  121  A    between atoms: _305  and  _306
REMARK  122  A    between atoms: _305  and  _308
REMARK  123  A    between atoms: _308  and  _309
REMARK  124  A    between atoms: _312  and  _314
REMARK  125  A    between atoms: _314  and  _315
REMARK  126  A    between atoms: _314  and  _317
REMARK  127  A    between atoms: _317  and  _318
REMARK  128  A    between atoms: _321  and  _323
REMARK  129  A    between atoms: _323  and  _324
REMARK  130  A    between atoms: _323  and  _326
REMARK  131  A    between atoms: _326  and  _327
REMARK  132  A    between atoms: _330  and  _332
REMARK  133  A    between atoms: _332  and  _333
REMARK  134  A    between atoms: _335  and  _337
REMARK  135  A    between atoms: _337  and  _338
REMARK  136  A    between atoms: _341  and  _343
REMARK  137  A    between atoms: _343  and  _344
REMARK  138  A    between atoms: _343  and  _346
REMARK  139  A    between atoms: _346  and  _347
REMARK  140  A    between atoms: _350  and  _352
REMARK  141  A    between atoms: _352  and  _353
REMARK  142  A    between atoms: _352  and  _355
REMARK  143  A    between atoms: _355  and  _356
REMARK  144  A    between atoms: _361  and  _363
REMARK  145  A    between atoms: _363  and  _364
REMARK  146  A    between atoms: _363  and  _366
REMARK  147  A    between atoms: _366  and  _367
REMARK  148  A    between atoms: _370  and  _372
REMARK  149  A    between atoms: _372  and  _373
REMARK  150  A    between atoms: _372  and  _375
REMARK  151  A    between atoms: _375  and  _376
REMARK  152  A    between atoms: _379  and  _381
REMARK  153  A    between atoms: _381  and  _382
REMARK  154  A    between atoms: _381  and  _384
REMARK  155  A    between atoms: _384  and  _385
REMARK  156  A    between atoms: _385  and  _386
REMARK  157  A    between atoms: _388  and  _390
REMARK  158  A    between atoms: _390  and  _391
REMARK  159  A    between atoms: _390  and  _393
REMARK  160  A    between atoms: _396  and  _398
REMARK  161  A    between atoms: _398  and  _399
REMARK  162  A    between atoms: _401  and  _403
REMARK  163  A    between atoms: _403  and  _404
REMARK  164  A    between atoms: _406  and  _408
REMARK  165  A    between atoms: _408  and  _409
REMARK  166  A    between atoms: _408  and  _411
REMARK  167  A    between atoms: _411  and  _412
REMARK  168  A    between atoms: _415  and  _417
REMARK  169  A    between atoms: _417  and  _418
REMARK  170  A    between atoms: _420  and  _422
REMARK  171  A    between atoms: _422  and  _423
REMARK  172  A    between atoms: _425  and  _427
REMARK  173  A    between atoms: _427  and  _428
REMARK  174  A    between atoms: _427  and  _430
REMARK  175  A    between atoms: _430  and  _431
REMARK  176  A    between atoms: _437  and  _439
REMARK  177  A    between atoms: _439  and  _440
REMARK  178  A    between atoms: _439  and  _442
REMARK  179  A    between atoms: _442  and  _443
REMARK  180  A    between atoms: _446  and  _448
REMARK  181  A    between atoms: _448  and  _449
REMARK  182  A    between atoms: _448  and  _451
REMARK  183  A    between atoms: _454  and  _456
REMARK  184  A    between atoms: _456  and  _457
REMARK  185  A    between atoms: _456  and  _459
REMARK  186  A    between atoms: _459  and  _460
REMARK  187  A    between atoms: _463  and  _465
REMARK  188  A    between atoms: _465  and  _466
REMARK  189  A    between atoms: _465  and  _468
REMARK  190  A    between atoms: _468  and  _469
REMARK  191  A    between atoms: _473  and  _474
REMARK  192  A    between atoms: _479  and  _481
REMARK  193  A    between atoms: _481  and  _482
REMARK  194  A    between atoms: _481  and  _484
REMARK  195  A    between atoms: _487  and  _489
REMARK  196  A    between atoms: _489  and  _490
REMARK  197  A    between atoms: _489  and  _492
REMARK  198  A    between atoms: _492  and  _493
REMARK  199  A    between atoms: _498  and  _500
REMARK  200  A    between atoms: _500  and  _501
REMARK  201  A    between atoms: _500  and  _503
REMARK  202  A    between atoms: _506  and  _508
REMARK  203  A    between atoms: _508  and  _509
REMARK  204  A    between atoms: _508  and  _511
REMARK  205  A    between atoms: _511  and  _512
REMARK  206  A    between atoms: _515  and  _517
REMARK  207  A    between atoms: _517  and  _518
REMARK  208  A    between atoms: _520  and  _522
REMARK  209  A    between atoms: _522  and  _523
REMARK  210  A    between atoms: _522  and  _525
REMARK  211  A    between atoms: _525  and  _526
REMARK  212  A    between atoms: _526  and  _527
REMARK  213  A    between atoms: _527  and  _528
REMARK  214  A    between atoms: _537  and  _539
REMARK  215  A    between atoms: _539  and  _540
REMARK  216  A    between atoms: _539  and  _542
REMARK  217  A    between atoms: _542  and  _543
REMARK                            x       y       z     vdW  Elec       q    Type
REMARK                         _______ _______ _______ _____ _____    ______ ____
ROOT
ATOM      1  O   HOH     1     -20.956   5.537  -2.798  0.00  0.00    +0.000 OA
ENDROOT
TORSDOF 0
REMARK  Name = ../refined-set-2016/4yhq/4yhq_pocket.pdb
REMARK  217 active torsions:
REMARK  status: ('A' for Active; 'I' for Inactive)
REMARK    1  A    between atoms: _1  and  _3
REMARK    2  A    between atoms: _3  and  _4
REMARK    3  A    between atoms: _3  and  _6
REMARK    4  A    between atoms: _6  and  _7
REMARK    5  A    between atoms: _7  and  _8
REMARK    6  A    between atoms: _8  and  _9
REMARK    7  A    between atoms: _18  and  _20
REMARK    8  A    between atoms: _20  and  _21
REMARK    9  A    between atoms: _20  and  _23
REMARK   10  A    between atoms: _23  and  _24
REMARK   11  A    between atoms: _30  and  _32
REMARK   12  A    between atoms: _32  and  _33
REMARK   13  A    between atoms: _32  and  _35
REMARK   14  A    between atoms: _35  and  _36
REMARK   15  A    between atoms: _39  and  _41
REMARK   16  A    between atoms: _41  and  _42
REMARK   17  A    between atoms: _41  and  _44
REMARK   18  A    between atoms: _44  and  _45
REMARK   19  A    between atoms: _48  and  _50
REMARK   20  A    between atoms: _50  and  _51
REMARK   21  A    between atoms: _50  and  _53
REMARK   22  A    between atoms: _53  and  _54
REMARK   23  A    between atoms: _57  and  _59
REMARK   24  A    between atoms: _59  and  _60
REMARK   25  A    between atoms: _59  and  _62
REMARK   26  A    between atoms: _62  and  _63
REMARK   27  A    between atoms: _66  and  _68
REMARK   28  A    between atoms: _68  and  _69
REMARK   29  A    between atoms: _71  and  _73
REMARK   30  A    between atoms: _73  and  _74
REMARK   31  A    between atoms: _77  and  _79
REMARK   32  A    between atoms: _79  and  _80
REMARK   33  A    between atoms: _79  and  _82
REMARK   34  A    between atoms: _82  and  _83
REMARK   35  A    between atoms: _86  and  _88
REMARK   36  A    between atoms: _88  and  _89
REMARK   37  A    between atoms: _88  and  _91
REMARK   38  A    between atoms: _91  and  _92
REMARK   39  A    between atoms: _97  and  _99
REMARK   40  A    between atoms: _99  and  _100
REMARK   41  A    between atoms: _99  and  _102
REMARK   42  A    between atoms: _102  and  _103
REMARK   43  A    between atoms: _106  and  _108
REMARK   44  A    between atoms: _108  and  _109
REMARK   45  A    between atoms: _108  and  _111
REMARK   46  A    between atoms: _111  and  _112
REMARK   47  A    between atoms: _115  and  _117
REMARK   48  A    between atoms: _117  and  _118
REMARK   49  A    between atoms: _117  and  _120
REMARK   50  A    between atoms: _120  and  _121
REMARK   51  A    between atoms: _121  and  _122
REMARK   52  A    between atoms: _124  and  _126
REMARK   53  A    between atoms: _126  and  _127
REMARK   54  A    between atoms: _126  and  _129
REMARK   55  A    between atoms: _132  and  _134
REMARK   56  A    between atoms: _134  and  _135
REMARK   57  A    between atoms: _137  and  _139
REMARK   58  A    between atoms: _139  and  _140
REMARK   59  A    between atoms: _142  and  _144
REMARK   60  A    between atoms: _144  and  _145
REMARK   61  A    between atoms: _144  and  _147
REMARK   62  A    between atoms: _147  and  _148
REMARK   63  A    between atoms: _151  and  _153
REMARK   64  A    between atoms: _153  and  _154
REMARK   65  A    between atoms: _156  and  _158
REMARK   66  A    between atoms: _158  and  _159
REMARK   67  A    between atoms: _161  and  _163
REMARK   68  A    between atoms: _163  and  _164
REMARK   69  A    between atoms: _163  and  _166
REMARK   70  A    between atoms: _166  and  _167
REMARK   71  A    between atoms: _173  and  _175
REMARK   72  A    between atoms: _175  and  _176
REMARK   73  A    between atoms: _175  and  _178
REMARK   74  A    between atoms: _178  and  _179
REMARK   75  A    between atoms: _182  and  _184
REMARK   76  A    between atoms: _184  and  _185
REMARK   77  A    between atoms: _184  and  _187
REMARK   78  A    between atoms: _187  and  _188
REMARK   79  A    between atoms: _191  and  _193
REMARK   80  A    between atoms: _193  and  _194
REMARK   81  A    between atoms: _193  and  _196
REMARK   82  A    between atoms: _196  and  _197
REMARK   83  A    between atoms: _201  and  _202
REMARK   84  A    between atoms: _207  and  _209
REMARK   85  A    between atoms: _209  and  _210
REMARK   86  A    between atoms: _209  and  _212
REMARK   87  A    between atoms: _215  and  _217
REMARK   88  A    between atoms: _217  and  _218
REMARK   89  A    between atoms: _217  and  _220
REMARK   90  A    between atoms: _220  and  _221
REMARK   91  A    between atoms: _226  and  _228
REMARK   92  A    between atoms: _228  and  _229
REMARK   93  A    between atoms: _228  and  _231
REMARK   94  A    between atoms: _234  and  _236
REMARK   95  A    between atoms: _236  and  _237
REMARK   96  A    between atoms: _239  and  _241
REMARK   97  A    between atoms: _241  and  _242
REMARK   98  A    between atoms: _241  and  _244
REMARK   99  A    between atoms: _244  and  _245
REMARK  100  A    between atoms: _245  and  _246
REMARK  101  A    between atoms: _246  and  _247
REMARK  102  A    between atoms: _256  and  _258
REMARK  103  A    between atoms: _258  and  _259
REMARK  104  A    between atoms: _258  and  _261
REMARK  105  A    between atoms: _261  and  _262
REMARK  106  A    between atoms: _265  and  _267
REMARK  107  A    between atoms: _267  and  _268
REMARK  108  A    between atoms: _267  and  _270
REMARK  109  A    between atoms: _270  and  _271
REMARK  110  A    between atoms: _271  and  _272
REMARK  111  A    between atoms: _272  and  _273
REMARK  112  A    between atoms: _282  and  _284
REMARK  113  A    between atoms: _284  and  _285
REMARK  114  A    between atoms: _284  and  _287
REMARK  115  A    between atoms: _287  and  _288
REMARK  116  A    between atoms: _294  and  _296
REMARK  117  A    between atoms: _296  and  _297
REMARK  118  A    between atoms: _296  and  _299
REMARK  119  A    between atoms: _299  and  _300
REMARK  120  A    between atoms: _303  and  _305
REMARK  121  A    between atoms: _305  and  _306
REMARK  122  A    between atoms: _305  and  _308
REMARK  123  A    between atoms: _308  and  _309
REMARK  124  A    between atoms: _312  and  _314
REMARK  125  A    between atoms: _314  and  _315
REMARK  126  A    between atoms: _314  and  _317
REMARK  127  A    between atoms: _317  and  _318
REMARK  128  A    between atoms: _321  and  _323
REMARK  129  A    between atoms: _323  and  _324
REMARK  130  A    between atoms: _323  and  _326
REMARK  131  A    between atoms: _326  and  _327
REMARK  132  A    between atoms: _330  and  _332
REMARK  133  A    between atoms: _332  and  _333
REMARK  134  A    between atoms: _335  and  _337
REMARK  135  A    between atoms: _337  and  _338
REMARK  136  A    between atoms: _341  and  _343
REMARK  137  A    between atoms: _343  and  _344
REMARK  138  A    between atoms: _343  and  _346
REMARK  139  A    between atoms: _346  and  _347
REMARK  140  A    between atoms: _350  and  _352
REMARK  141  A    between atoms: _352  and  _353
REMARK  142  A    between atoms: _352  and  _355
REMARK  143  A    between atoms: _355  and  _356
REMARK  144  A    between atoms: _361  and  _363
REMARK  145  A    between atoms: _363  and  _364
REMARK  146  A    between atoms: _363  and  _366
REMARK  147  A    between atoms: _366  and  _367
REMARK  148  A    between atoms: _370  and  _372
REMARK  149  A    between atoms: _372  and  _373
REMARK  150  A    between atoms: _372  and  _375
REMARK  151  A    between atoms: _375  and  _376
REMARK  152  A    between atoms: _379  and  _381
REMARK  153  A    between atoms: _381  and  _382
REMARK  154  A    between atoms: _381  and  _384
REMARK  155  A    between atoms: _384  and  _385
REMARK  156  A    between atoms: _385  and  _386
REMARK  157  A    between atoms: _388  and  _390
REMARK  158  A    between atoms: _390  and  _391
REMARK  159  A    between atoms: _390  and  _393
REMARK  160  A    between atoms: _396  and  _398
REMARK  161  A    between atoms: _398  and  _399
REMARK  162  A    between atoms: _401  and  _403
REMARK  163  A    between atoms: _403  and  _404
REMARK  164  A    between atoms: _406  and  _408
REMARK  165  A    between atoms: _408  and  _409
REMARK  166  A    between atoms: _408  and  _411
REMARK  167  A    between atoms: _411  and  _412
REMARK  168  A    between atoms: _415  and  _417
REMARK  169  A    between atoms: _417  and  _418
REMARK  170  A    between atoms: _420  and  _422
REMARK  171  A    between atoms: _422  and  _423
REMARK  172  A    between atoms: _425  and  _427
REMARK  173  A    between atoms: _427  and  _428
REMARK  174  A    between atoms: _427  and  _430
REMARK  175  A    between atoms: _430  and  _431
REMARK  176  A    between atoms: _437  and  _439
REMARK  177  A    between atoms: _439  and  _440
REMARK  178  A    between atoms: _439  and  _442
REMARK  179  A    between atoms: _442  and  _443
REMARK  180  A    between atoms: _446  and  _448
REMARK  181  A    between atoms: _448  and  _449
REMARK  182  A    between atoms: _448  and  _451
REMARK  183  A    between atoms: _454  and  _456
REMARK  184  A    between atoms: _456  and  _457
REMARK  185  A    between atoms: _456  and  _459
REMARK  186  A    between atoms: _459  and  _460
REMARK  187  A    between atoms: _463  and  _465
REMARK  188  A    between atoms: _465  and  _466
REMARK  189  A    between atoms: _465  and  _468
REMARK  190  A    between atoms: _468  and  _469
REMARK  191  A    between atoms: _473  and  _474
REMARK  192  A    between atoms: _479  and  _481
REMARK  193  A    between atoms: _481  and  _482
REMARK  194  A    between atoms: _481  and  _484
REMARK  195  A    between atoms: _487  and  _489
REMARK  196  A    between atoms: _489  and  _490
REMARK  197  A    between atoms: _489  and  _492
REMARK  198  A    between atoms: _492  and  _493
REMARK  199  A    between atoms: _498  and  _500
REMARK  200  A    between atoms: _500  and  _501
REMARK  201  A    between atoms: _500  and  _503
REMARK  202  A    between atoms: _506  and  _508
REMARK  203  A    between atoms: _508  and  _509
REMARK  204  A    between atoms: _508  and  _511
REMARK  205  A    between atoms: _511  and  _512
REMARK  206  A    between atoms: _515  and  _517
REMARK  207  A    between atoms: _517  and  _518
REMARK  208  A    between atoms: _520  and  _522
REMARK  209  A    between atoms: _522  and  _523
REMARK  210  A    between atoms: _522  and  _525
REMARK  211  A    between atoms: _525  and  _526
REMARK  212  A    between atoms: _526  and  _527
REMARK  213  A    between atoms: _527  and  _528
REMARK  214  A    between atoms: _537  and  _539
REMARK  215  A    between atoms: _539  and  _540
REMARK  216  A    between atoms: _539  and  _542
REMARK  217  A    between atoms: _542  and  _543
REMARK                            x       y       z     vdW  Elec       q    Type
REMARK                         _______ _______ _______ _____ _____    ______ ____
ROOT
ATOM      1  O   HOH     1     -23.727   3.776  -9.756  0.00  0.00    +0.000 OA
ENDROOT
TORSDOF 0
REMARK  Name = ../refined-set-2016/4yhq/4yhq_pocket.pdb
REMARK  217 active torsions:
REMARK  status: ('A' for Active; 'I' for Inactive)
REMARK    1  A    between atoms: _1  and  _3
REMARK    2  A    between atoms: _3  and  _4
REMARK    3  A    between atoms: _3  and  _6
REMARK    4  A    between atoms: _6  and  _7
REMARK    5  A    between atoms: _7  and  _8
REMARK    6  A    between atoms: _8  and  _9
REMARK    7  A    between atoms: _18  and  _20
REMARK    8  A    between atoms: _20  and  _21
REMARK    9  A    between atoms: _20  and  _23
REMARK   10  A    between atoms: _23  and  _24
REMARK   11  A    between atoms: _30  and  _32
REMARK   12  A    between atoms: _32  and  _33
REMARK   13  A    between atoms: _32  and  _35
REMARK   14  A    between atoms: _35  and  _36
REMARK   15  A    between atoms: _39  and  _41
REMARK   16  A    between atoms: _41  and  _42
REMARK   17  A    between atoms: _41  and  _44
REMARK   18  A    between atoms: _44  and  _45
REMARK   19  A    between atoms: _48  and  _50
REMARK   20  A    between atoms: _50  and  _51
REMARK   21  A    between atoms: _50  and  _53
REMARK   22  A    between atoms: _53  and  _54
REMARK   23  A    between atoms: _57  and  _59
REMARK   24  A    between atoms: _59  and  _60
REMARK   25  A    between atoms: _59  and  _62
REMARK   26  A    between atoms: _62  and  _63
REMARK   27  A    between atoms: _66  and  _68
REMARK   28  A    between atoms: _68  and  _69
REMARK   29  A    between atoms: _71  and  _73
REMARK   30  A    between atoms: _73  and  _74
REMARK   31  A    between atoms: _77  and  _79
REMARK   32  A    between atoms: _79  and  _80
REMARK   33  A    between atoms: _79  and  _82
REMARK   34  A    between atoms: _82  and  _83
REMARK   35  A    between atoms: _86  and  _88
REMARK   36  A    between atoms: _88  and  _89
REMARK   37  A    between atoms: _88  and  _91
REMARK   38  A    between atoms: _91  and  _92
REMARK   39  A    between atoms: _97  and  _99
REMARK   40  A    between atoms: _99  and  _100
REMARK   41  A    between atoms: _99  and  _102
REMARK   42  A    between atoms: _102  and  _103
REMARK   43  A    between atoms: _106  and  _108
REMARK   44  A    between atoms: _108  and  _109
REMARK   45  A    between atoms: _108  and  _111
REMARK   46  A    between atoms: _111  and  _112
REMARK   47  A    between atoms: _115  and  _117
REMARK   48  A    between atoms: _117  and  _118
REMARK   49  A    between atoms: _117  and  _120
REMARK   50  A    between atoms: _120  and  _121
REMARK   51  A    between atoms: _121  and  _122
REMARK   52  A    between atoms: _124  and  _126
REMARK   53  A    between atoms: _126  and  _127
REMARK   54  A    between atoms: _126  and  _129
REMARK   55  A    between atoms: _132  and  _134
REMARK   56  A    between atoms: _134  and  _135
REMARK   57  A    between atoms: _137  and  _139
REMARK   58  A    between atoms: _139  and  _140
REMARK   59  A    between atoms: _142  and  _144
REMARK   60  A    between atoms: _144  and  _145
REMARK   61  A    between atoms: _144  and  _147
REMARK   62  A    between atoms: _147  and  _148
REMARK   63  A    between atoms: _151  and  _153
REMARK   64  A    between atoms: _153  and  _154
REMARK   65  A    between atoms: _156  and  _158
REMARK   66  A    between atoms: _158  and  _159
REMARK   67  A    between atoms: _161  and  _163
REMARK   68  A    between atoms: _163  and  _164
REMARK   69  A    between atoms: _163  and  _166
REMARK   70  A    between atoms: _166  and  _167
REMARK   71  A    between atoms: _173  and  _175
REMARK   72  A    between atoms: _175  and  _176
REMARK   73  A    between atoms: _175  and  _178
REMARK   74  A    between atoms: _178  and  _179
REMARK   75  A    between atoms: _182  and  _184
REMARK   76  A    between atoms: _184  and  _185
REMARK   77  A    between atoms: _184  and  _187
REMARK   78  A    between atoms: _187  and  _188
REMARK   79  A    between atoms: _191  and  _193
REMARK   80  A    between atoms: _193  and  _194
REMARK   81  A    between atoms: _193  and  _196
REMARK   82  A    between atoms: _196  and  _197
REMARK   83  A    between atoms: _201  and  _202
REMARK   84  A    between atoms: _207  and  _209
REMARK   85  A    between atoms: _209  and  _210
REMARK   86  A    between atoms: _209  and  _212
REMARK   87  A    between atoms: _215  and  _217
REMARK   88  A    between atoms: _217  and  _218
REMARK   89  A    between atoms: _217  and  _220
REMARK   90  A    between atoms: _220  and  _221
REMARK   91  A    between atoms: _226  and  _228
REMARK   92  A    between atoms: _228  and  _229
REMARK   93  A    between atoms: _228  and  _231
REMARK   94  A    between atoms: _234  and  _236
REMARK   95  A    between atoms: _236  and  _237
REMARK   96  A    between atoms: _239  and  _241
REMARK   97  A    between atoms: _241  and  _242
REMARK   98  A    between atoms: _241  and  _244
REMARK   99  A    between atoms: _244  and  _245
REMARK  100  A    between atoms: _245  and  _246
REMARK  101  A    between atoms: _246  and  _247
REMARK  102  A    between atoms: _256  and  _258
REMARK  103  A    between atoms: _258  and  _259
REMARK  104  A    between atoms: _258  and  _261
REMARK  105  A    between atoms: _261  and  _262
REMARK  106  A    between atoms: _265  and  _267
REMARK  107  A    between atoms: _267  and  _268
REMARK  108  A    between atoms: _267  and  _270
REMARK  109  A    between atoms: _270  and  _271
REMARK  110  A    between atoms: _271  and  _272
REMARK  111  A    between atoms: _272  and  _273
REMARK  112  A    between atoms: _282  and  _284
REMARK  113  A    between atoms: _284  and  _285
REMARK  114  A    between atoms: _284  and  _287
REMARK  115  A    between atoms: _287  and  _288
REMARK  116  A    between atoms: _294  and  _296
REMARK  117  A    between atoms: _296  and  _297
REMARK  118  A    between atoms: _296  and  _299
REMARK  119  A    between atoms: _299  and  _300
REMARK  120  A    between atoms: _303  and  _305
REMARK  121  A    between atoms: _305  and  _306
REMARK  122  A    between atoms: _305  and  _308
REMARK  123  A    between atoms: _308  and  _309
REMARK  124  A    between atoms: _312  and  _314
REMARK  125  A    between atoms: _314  and  _315
REMARK  126  A    between atoms: _314  and  _317
REMARK  127  A    between atoms: _317  and  _318
REMARK  128  A    between atoms: _321  and  _323
REMARK  129  A    between atoms: _323  and  _324
REMARK  130  A    between atoms: _323  and  _326
REMARK  131  A    between atoms: _326  and  _327
REMARK  132  A    between atoms: _330  and  _332
REMARK  133  A    between atoms: _332  and  _333
REMARK  134  A    between atoms: _335  and  _337
REMARK  135  A    between atoms: _337  and  _338
REMARK  136  A    between atoms: _341  and  _343
REMARK  137  A    between atoms: _343  and  _344
REMARK  138  A    between atoms: _343  and  _346
REMARK  139  A    between atoms: _346  and  _347
REMARK  140  A    between atoms: _350  and  _352
REMARK  141  A    between atoms: _352  and  _353
REMARK  142  A    between atoms: _352  and  _355
REMARK  143  A    between atoms: _355  and  _356
REMARK  144  A    between atoms: _361  and  _363
REMARK  145  A    between atoms: _363  and  _364
REMARK  146  A    between atoms: _363  and  _366
REMARK  147  A    between atoms: _366  and  _367
REMARK  148  A    between atoms: _370  and  _372
REMARK  149  A    between atoms: _372  and  _373
REMARK  150  A    between atoms: _372  and  _375
REMARK  151  A    between atoms: _375  and  _376
REMARK  152  A    between atoms: _379  and  _381
REMARK  153  A    between atoms: _381  and  _382
REMARK  154  A    between atoms: _381  and  _384
REMARK  155  A    between atoms: _384  and  _385
REMARK  156  A    between atoms: _385  and  _386
REMARK  157  A    between atoms: _388  and  _390
REMARK  158  A    between atoms: _390  and  _391
REMARK  159  A    between atoms: _390  and  _393
REMARK  160  A    between atoms: _396  and  _398
REMARK  161  A    between atoms: _398  and  _399
REMARK  162  A    between atoms: _401  and  _403
REMARK  163  A    between atoms: _403  and  _404
REMARK  164  A    between atoms: _406  and  _408
REMARK  165  A    between atoms: _408  and  _409
REMARK  166  A    between atoms: _408  and  _411
REMARK  167  A    between atoms: _411  and  _412
REMARK  168  A    between atoms: _415  and  _417
REMARK  169  A    between atoms: _417  and  _418
REMARK  170  A    between atoms: _420  and  _422
REMARK  171  A    between atoms: _422  and  _423
REMARK  172  A    between atoms: _425  and  _427
REMARK  173  A    between atoms: _427  and  _428
REMARK  174  A    between atoms: _427  and  _430
REMARK  175  A    between atoms: _430  and  _431
REMARK  176  A    between atoms: _437  and  _439
REMARK  177  A    between atoms: _439  and  _440
REMARK  178  A    between atoms: _439  and  _442
REMARK  179  A    between atoms: _442  and  _443
REMARK  180  A    between atoms: _446  and  _448
REMARK  181  A    between atoms: _448  and  _449
REMARK  182  A    between atoms: _448  and  _451
REMARK  183  A    between atoms: _454  and  _456
REMARK  184  A    between atoms: _456  and  _457
REMARK  185  A    between atoms: _456  and  _459
REMARK  186  A    between atoms: _459  and  _460
REMARK  187  A    between atoms: _463  and  _465
REMARK  188  A    between atoms: _465  and  _466
REMARK  189  A    between atoms: _465  and  _468
REMARK  190  A    between atoms: _468  and  _469
REMARK  191  A    between atoms: _473  and  _474
REMARK  192  A    between atoms: _479  and  _481
REMARK  193  A    between atoms: _481  and  _482
REMARK  194  A    between atoms: _481  and  _484
REMARK  195  A    between atoms: _487  and  _489
REMARK  196  A    between atoms: _489  and  _490
REMARK  197  A    between atoms: _489  and  _492
REMARK  198  A    between atoms: _492  and  _493
REMARK  199  A    between atoms: _498  and  _500
REMARK  200  A    between atoms: _500  and  _501
REMARK  201  A    between atoms: _500  and  _503
REMARK  202  A    between atoms: _506  and  _508
REMARK  203  A    between atoms: _508  and  _509
REMARK  204  A    between atoms: _508  and  _511
REMARK  205  A    between atoms: _511  and  _512
REMARK  206  A    between atoms: _515  and  _517
REMARK  207  A    between atoms: _517  and  _518
REMARK  208  A    between atoms: _520  and  _522
REMARK  209  A    between atoms: _522  and  _523
REMARK  210  A    between atoms: _522  and  _525
REMARK  211  A    between atoms: _525  and  _526
REMARK  212  A    between atoms: _526  and  _527
REMARK  213  A    between atoms: _527  and  _528
REMARK  214  A    between atoms: _537  and  _539
REMARK  215  A    between atoms: _539  and  _540
REMARK  216  A    between atoms: _539  and  _542
REMARK  217  A    between atoms: _542  and  _543
REMARK                            x       y       z     vdW  Elec       q    Type
REMARK                         _______ _______ _______ _____ _____    ______ ____
ROOT
ATOM      1  O   HOH     1     -18.323  -0.141 -12.831  0.00  0.00    +0.000 OA
ENDROOT
TORSDOF 0
REMARK  Name = ../refined-set-2016/4yhq/4yhq_pocket.pdb
REMARK  217 active torsions:
REMARK  status: ('A' for Active; 'I' for Inactive)
REMARK    1  A    between atoms: _1  and  _3
REMARK    2  A    between atoms: _3  and  _4
REMARK    3  A    between atoms: _3  and  _6
REMARK    4  A    between atoms: _6  and  _7
REMARK    5  A    between atoms: _7  and  _8
REMARK    6  A    between atoms: _8  and  _9
REMARK    7  A    between atoms: _18  and  _20
REMARK    8  A    between atoms: _20  and  _21
REMARK    9  A    between atoms: _20  and  _23
REMARK   10  A    between atoms: _23  and  _24
REMARK   11  A    between atoms: _30  and  _32
REMARK   12  A    between atoms: _32  and  _33
REMARK   13  A    between atoms: _32  and  _35
REMARK   14  A    between atoms: _35  and  _36
REMARK   15  A    between atoms: _39  and  _41
REMARK   16  A    between atoms: _41  and  _42
REMARK   17  A    between atoms: _41  and  _44
REMARK   18  A    between atoms: _44  and  _45
REMARK   19  A    between atoms: _48  and  _50
REMARK   20  A    between atoms: _50  and  _51
REMARK   21  A    between atoms: _50  and  _53
REMARK   22  A    between atoms: _53  and  _54
REMARK   23  A    between atoms: _57  and  _59
REMARK   24  A    between atoms: _59  and  _60
REMARK   25  A    between atoms: _59  and  _62
REMARK   26  A    between atoms: _62  and  _63
REMARK   27  A    between atoms: _66  and  _68
REMARK   28  A    between atoms: _68  and  _69
REMARK   29  A    between atoms: _71  and  _73
REMARK   30  A    between atoms: _73  and  _74
REMARK   31  A    between atoms: _77  and  _79
REMARK   32  A    between atoms: _79  and  _80
REMARK   33  A    between atoms: _79  and  _82
REMARK   34  A    between atoms: _82  and  _83
REMARK   35  A    between atoms: _86  and  _88
REMARK   36  A    between atoms: _88  and  _89
REMARK   37  A    between atoms: _88  and  _91
REMARK   38  A    between atoms: _91  and  _92
REMARK   39  A    between atoms: _97  and  _99
REMARK   40  A    between atoms: _99  and  _100
REMARK   41  A    between atoms: _99  and  _102
REMARK   42  A    between atoms: _102  and  _103
REMARK   43  A    between atoms: _106  and  _108
REMARK   44  A    between atoms: _108  and  _109
REMARK   45  A    between atoms: _108  and  _111
REMARK   46  A    between atoms: _111  and  _112
REMARK   47  A    between atoms: _115  and  _117
REMARK   48  A    between atoms: _117  and  _118
REMARK   49  A    between atoms: _117  and  _120
REMARK   50  A    between atoms: _120  and  _121
REMARK   51  A    between atoms: _121  and  _122
REMARK   52  A    between atoms: _124  and  _126
REMARK   53  A    between atoms: _126  and  _127
REMARK   54  A    between atoms: _126  and  _129
REMARK   55  A    between atoms: _132  and  _134
REMARK   56  A    between atoms: _134  and  _135
REMARK   57  A    between atoms: _137  and  _139
REMARK   58  A    between atoms: _139  and  _140
REMARK   59  A    between atoms: _142  and  _144
REMARK   60  A    between atoms: _144  and  _145
REMARK   61  A    between atoms: _144  and  _147
REMARK   62  A    between atoms: _147  and  _148
REMARK   63  A    between atoms: _151  and  _153
REMARK   64  A    between atoms: _153  and  _154
REMARK   65  A    between atoms: _156  and  _158
REMARK   66  A    between atoms: _158  and  _159
REMARK   67  A    between atoms: _161  and  _163
REMARK   68  A    between atoms: _163  and  _164
REMARK   69  A    between atoms: _163  and  _166
REMARK   70  A    between atoms: _166  and  _167
REMARK   71  A    between atoms: _173  and  _175
REMARK   72  A    between atoms: _175  and  _176
REMARK   73  A    between atoms: _175  and  _178
REMARK   74  A    between atoms: _178  and  _179
REMARK   75  A    between atoms: _182  and  _184
REMARK   76  A    between atoms: _184  and  _185
REMARK   77  A    between atoms: _184  and  _187
REMARK   78  A    between atoms: _187  and  _188
REMARK   79  A    between atoms: _191  and  _193
REMARK   80  A    between atoms: _193  and  _194
REMARK   81  A    between atoms: _193  and  _196
REMARK   82  A    between atoms: _196  and  _197
REMARK   83  A    between atoms: _201  and  _202
REMARK   84  A    between atoms: _207  and  _209
REMARK   85  A    between atoms: _209  and  _210
REMARK   86  A    between atoms: _209  and  _212
REMARK   87  A    between atoms: _215  and  _217
REMARK   88  A    between atoms: _217  and  _218
REMARK   89  A    between atoms: _217  and  _220
REMARK   90  A    between atoms: _220  and  _221
REMARK   91  A    between atoms: _226  and  _228
REMARK   92  A    between atoms: _228  and  _229
REMARK   93  A    between atoms: _228  and  _231
REMARK   94  A    between atoms: _234  and  _236
REMARK   95  A    between atoms: _236  and  _237
REMARK   96  A    between atoms: _239  and  _241
REMARK   97  A    between atoms: _241  and  _242
REMARK   98  A    between atoms: _241  and  _244
REMARK   99  A    between atoms: _244  and  _245
REMARK  100  A    between atoms: _245  and  _246
REMARK  101  A    between atoms: _246  and  _247
REMARK  102  A    between atoms: _256  and  _258
REMARK  103  A    between atoms: _258  and  _259
REMARK  104  A    between atoms: _258  and  _261
REMARK  105  A    between atoms: _261  and  _262
REMARK  106  A    between atoms: _265  and  _267
REMARK  107  A    between atoms: _267  and  _268
REMARK  108  A    between atoms: _267  and  _270
REMARK  109  A    between atoms: _270  and  _271
REMARK  110  A    between atoms: _271  and  _272
REMARK  111  A    between atoms: _272  and  _273
REMARK  112  A    between atoms: _282  and  _284
REMARK  113  A    between atoms: _284  and  _285
REMARK  114  A    between atoms: _284  and  _287
REMARK  115  A    between atoms: _287  and  _288
REMARK  116  A    between atoms: _294  and  _296
REMARK  117  A    between atoms: _296  and  _297
REMARK  118  A    between atoms: _296  and  _299
REMARK  119  A    between atoms: _299  and  _300
REMARK  120  A    between atoms: _303  and  _305
REMARK  121  A    between atoms: _305  and  _306
REMARK  122  A    between atoms: _305  and  _308
REMARK  123  A    between atoms: _308  and  _309
REMARK  124  A    between atoms: _312  and  _314
REMARK  125  A    between atoms: _314  and  _315
REMARK  126  A    between atoms: _314  and  _317
REMARK  127  A    between atoms: _317  and  _318
REMARK  128  A    between atoms: _321  and  _323
REMARK  129  A    between atoms: _323  and  _324
REMARK  130  A    between atoms: _323  and  _326
REMARK  131  A    between atoms: _326  and  _327
REMARK  132  A    between atoms: _330  and  _332
REMARK  133  A    between atoms: _332  and  _333
REMARK  134  A    between atoms: _335  and  _337
REMARK  135  A    between atoms: _337  and  _338
REMARK  136  A    between atoms: _341  and  _343
REMARK  137  A    between atoms: _343  and  _344
REMARK  138  A    between atoms: _343  and  _346
REMARK  139  A    between atoms: _346  and  _347
REMARK  140  A    between atoms: _350  and  _352
REMARK  141  A    between atoms: _352  and  _353
REMARK  142  A    between atoms: _352  and  _355
REMARK  143  A    between atoms: _355  and  _356
REMARK  144  A    between atoms: _361  and  _363
REMARK  145  A    between atoms: _363  and  _364
REMARK  146  A    between atoms: _363  and  _366
REMARK  147  A    between atoms: _366  and  _367
REMARK  148  A    between atoms: _370  and  _372
REMARK  149  A    between atoms: _372  and  _373
REMARK  150  A    between atoms: _372  and  _375
REMARK  151  A    between atoms: _375  and  _376
REMARK  152  A    between atoms: _379  and  _381
REMARK  153  A    between atoms: _381  and  _382
REMARK  154  A    between atoms: _381  and  _384
REMARK  155  A    between atoms: _384  and  _385
REMARK  156  A    between atoms: _385  and  _386
REMARK  157  A    between atoms: _388  and  _390
REMARK  158  A    between atoms: _390  and  _391
REMARK  159  A    between atoms: _390  and  _393
REMARK  160  A    between atoms: _396  and  _398
REMARK  161  A    between atoms: _398  and  _399
REMARK  162  A    between atoms: _401  and  _403
REMARK  163  A    between atoms: _403  and  _404
REMARK  164  A    between atoms: _406  and  _408
REMARK  165  A    between atoms: _408  and  _409
REMARK  166  A    between atoms: _408  and  _411
REMARK  167  A    between atoms: _411  and  _412
REMARK  168  A    between atoms: _415  and  _417
REMARK  169  A    between atoms: _417  and  _418
REMARK  170  A    between atoms: _420  and  _422
REMARK  171  A    between atoms: _422  and  _423
REMARK  172  A    between atoms: _425  and  _427
REMARK  173  A    between atoms: _427  and  _428
REMARK  174  A    between atoms: _427  and  _430
REMARK  175  A    between atoms: _430  and  _431
REMARK  176  A    between atoms: _437  and  _439
REMARK  177  A    between atoms: _439  and  _440
REMARK  178  A    between atoms: _439  and  _442
REMARK  179  A    between atoms: _442  and  _443
REMARK  180  A    between atoms: _446  and  _448
REMARK  181  A    between atoms: _448  and  _449
REMARK  182  A    between atoms: _448  and  _451
REMARK  183  A    between atoms: _454  and  _456
REMARK  184  A    between atoms: _456  and  _457
REMARK  185  A    between atoms: _456  and  _459
REMARK  186  A    between atoms: _459  and  _460
REMARK  187  A    between atoms: _463  and  _465
REMARK  188  A    between atoms: _465  and  _466
REMARK  189  A    between atoms: _465  and  _468
REMARK  190  A    between atoms: _468  and  _469
REMARK  191  A    between atoms: _473  and  _474
REMARK  192  A    between atoms: _479  and  _481
REMARK  193  A    between atoms: _481  and  _482
REMARK  194  A    between atoms: _481  and  _484
REMARK  195  A    between atoms: _487  and  _489
REMARK  196  A    between atoms: _489  and  _490
REMARK  197  A    between atoms: _489  and  _492
REMARK  198  A    between atoms: _492  and  _493
REMARK  199  A    between atoms: _498  and  _500
REMARK  200  A    between atoms: _500  and  _501
REMARK  201  A    between atoms: _500  and  _503
REMARK  202  A    between atoms: _506  and  _508
REMARK  203  A    between atoms: _508  and  _509
REMARK  204  A    between atoms: _508  and  _511
REMARK  205  A    between atoms: _511  and  _512
REMARK  206  A    between atoms: _515  and  _517
REMARK  207  A    between atoms: _517  and  _518
REMARK  208  A    between atoms: _520  and  _522
REMARK  209  A    between atoms: _522  and  _523
REMARK  210  A    between atoms: _522  and  _525
REMARK  211  A    between atoms: _525  and  _526
REMARK  212  A    between atoms: _526  and  _527
REMARK  213  A    between atoms: _527  and  _528
REMARK  214  A    between atoms: _537  and  _539
REMARK  215  A    between atoms: _539  and  _540
REMARK  216  A    between atoms: _539  and  _542
REMARK  217  A    between atoms: _542  and  _543
REMARK                            x       y       z     vdW  Elec       q    Type
REMARK                         _______ _______ _______ _____ _____    ______ ____
ROOT
ATOM      1  O   HOH     1     -14.408   4.374  -6.123  0.00  0.00    +0.000 OA
ENDROOT
TORSDOF 0
REMARK  Name = ../refined-set-2016/4yhq/4yhq_pocket.pdb
REMARK  217 active torsions:
REMARK  status: ('A' for Active; 'I' for Inactive)
REMARK    1  A    between atoms: _1  and  _3
REMARK    2  A    between atoms: _3  and  _4
REMARK    3  A    between atoms: _3  and  _6
REMARK    4  A    between atoms: _6  and  _7
REMARK    5  A    between atoms: _7  and  _8
REMARK    6  A    between atoms: _8  and  _9
REMARK    7  A    between atoms: _18  and  _20
REMARK    8  A    between atoms: _20  and  _21
REMARK    9  A    between atoms: _20  and  _23
REMARK   10  A    between atoms: _23  and  _24
REMARK   11  A    between atoms: _30  and  _32
REMARK   12  A    between atoms: _32  and  _33
REMARK   13  A    between atoms: _32  and  _35
REMARK   14  A    between atoms: _35  and  _36
REMARK   15  A    between atoms: _39  and  _41
REMARK   16  A    between atoms: _41  and  _42
REMARK   17  A    between atoms: _41  and  _44
REMARK   18  A    between atoms: _44  and  _45
REMARK   19  A    between atoms: _48  and  _50
REMARK   20  A    between atoms: _50  and  _51
REMARK   21  A    between atoms: _50  and  _53
REMARK   22  A    between atoms: _53  and  _54
REMARK   23  A    between atoms: _57  and  _59
REMARK   24  A    between atoms: _59  and  _60
REMARK   25  A    between atoms: _59  and  _62
REMARK   26  A    between atoms: _62  and  _63
REMARK   27  A    between atoms: _66  and  _68
REMARK   28  A    between atoms: _68  and  _69
REMARK   29  A    between atoms: _71  and  _73
REMARK   30  A    between atoms: _73  and  _74
REMARK   31  A    between atoms: _77  and  _79
REMARK   32  A    between atoms: _79  and  _80
REMARK   33  A    between atoms: _79  and  _82
REMARK   34  A    between atoms: _82  and  _83
REMARK   35  A    between atoms: _86  and  _88
REMARK   36  A    between atoms: _88  and  _89
REMARK   37  A    between atoms: _88  and  _91
REMARK   38  A    between atoms: _91  and  _92
REMARK   39  A    between atoms: _97  and  _99
REMARK   40  A    between atoms: _99  and  _100
REMARK   41  A    between atoms: _99  and  _102
REMARK   42  A    between atoms: _102  and  _103
REMARK   43  A    between atoms: _106  and  _108
REMARK   44  A    between atoms: _108  and  _109
REMARK   45  A    between atoms: _108  and  _111
REMARK   46  A    between atoms: _111  and  _112
REMARK   47  A    between atoms: _115  and  _117
REMARK   48  A    between atoms: _117  and  _118
REMARK   49  A    between atoms: _117  and  _120
REMARK   50  A    between atoms: _120  and  _121
REMARK   51  A    between atoms: _121  and  _122
REMARK   52  A    between atoms: _124  and  _126
REMARK   53  A    between atoms: _126  and  _127
REMARK   54  A    between atoms: _126  and  _129
REMARK   55  A    between atoms: _132  and  _134
REMARK   56  A    between atoms: _134  and  _135
REMARK   57  A    between atoms: _137  and  _139
REMARK   58  A    between atoms: _139  and  _140
REMARK   59  A    between atoms: _142  and  _144
REMARK   60  A    between atoms: _144  and  _145
REMARK   61  A    between atoms: _144  and  _147
REMARK   62  A    between atoms: _147  and  _148
REMARK   63  A    between atoms: _151  and  _153
REMARK   64  A    between atoms: _153  and  _154
REMARK   65  A    between atoms: _156  and  _158
REMARK   66  A    between atoms: _158  and  _159
REMARK   67  A    between atoms: _161  and  _163
REMARK   68  A    between atoms: _163  and  _164
REMARK   69  A    between atoms: _163  and  _166
REMARK   70  A    between atoms: _166  and  _167
REMARK   71  A    between atoms: _173  and  _175
REMARK   72  A    between atoms: _175  and  _176
REMARK   73  A    between atoms: _175  and  _178
REMARK   74  A    between atoms: _178  and  _179
REMARK   75  A    between atoms: _182  and  _184
REMARK   76  A    between atoms: _184  and  _185
REMARK   77  A    between atoms: _184  and  _187
REMARK   78  A    between atoms: _187  and  _188
REMARK   79  A    between atoms: _191  and  _193
REMARK   80  A    between atoms: _193  and  _194
REMARK   81  A    between atoms: _193  and  _196
REMARK   82  A    between atoms: _196  and  _197
REMARK   83  A    between atoms: _201  and  _202
REMARK   84  A    between atoms: _207  and  _209
REMARK   85  A    between atoms: _209  and  _210
REMARK   86  A    between atoms: _209  and  _212
REMARK   87  A    between atoms: _215  and  _217
REMARK   88  A    between atoms: _217  and  _218
REMARK   89  A    between atoms: _217  and  _220
REMARK   90  A    between atoms: _220  and  _221
REMARK   91  A    between atoms: _226  and  _228
REMARK   92  A    between atoms: _228  and  _229
REMARK   93  A    between atoms: _228  and  _231
REMARK   94  A    between atoms: _234  and  _236
REMARK   95  A    between atoms: _236  and  _237
REMARK   96  A    between atoms: _239  and  _241
REMARK   97  A    between atoms: _241  and  _242
REMARK   98  A    between atoms: _241  and  _244
REMARK   99  A    between atoms: _244  and  _245
REMARK  100  A    between atoms: _245  and  _246
REMARK  101  A    between atoms: _246  and  _247
REMARK  102  A    between atoms: _256  and  _258
REMARK  103  A    between atoms: _258  and  _259
REMARK  104  A    between atoms: _258  and  _261
REMARK  105  A    between atoms: _261  and  _262
REMARK  106  A    between atoms: _265  and  _267
REMARK  107  A    between atoms: _267  and  _268
REMARK  108  A    between atoms: _267  and  _270
REMARK  109  A    between atoms: _270  and  _271
REMARK  110  A    between atoms: _271  and  _272
REMARK  111  A    between atoms: _272  and  _273
REMARK  112  A    between atoms: _282  and  _284
REMARK  113  A    between atoms: _284  and  _285
REMARK  114  A    between atoms: _284  and  _287
REMARK  115  A    between atoms: _287  and  _288
REMARK  116  A    between atoms: _294  and  _296
REMARK  117  A    between atoms: _296  and  _297
REMARK  118  A    between atoms: _296  and  _299
REMARK  119  A    between atoms: _299  and  _300
REMARK  120  A    between atoms: _303  and  _305
REMARK  121  A    between atoms: _305  and  _306
REMARK  122  A    between atoms: _305  and  _308
REMARK  123  A    between atoms: _308  and  _309
REMARK  124  A    between atoms: _312  and  _314
REMARK  125  A    between atoms: _314  and  _315
REMARK  126  A    between atoms: _314  and  _317
REMARK  127  A    between atoms: _317  and  _318
REMARK  128  A    between atoms: _321  and  _323
REMARK  129  A    between atoms: _323  and  _324
REMARK  130  A    between atoms: _323  and  _326
REMARK  131  A    between atoms: _326  and  _327
REMARK  132  A    between atoms: _330  and  _332
REMARK  133  A    between atoms: _332  and  _333
REMARK  134  A    between atoms: _335  and  _337
REMARK  135  A    between atoms: _337  and  _338
REMARK  136  A    between atoms: _341  and  _343
REMARK  137  A    between atoms: _343  and  _344
REMARK  138  A    between atoms: _343  and  _346
REMARK  139  A    between atoms: _346  and  _347
REMARK  140  A    between atoms: _350  and  _352
REMARK  141  A    between atoms: _352  and  _353
REMARK  142  A    between atoms: _352  and  _355
REMARK  143  A    between atoms: _355  and  _356
REMARK  144  A    between atoms: _361  and  _363
REMARK  145  A    between atoms: _363  and  _364
REMARK  146  A    between atoms: _363  and  _366
REMARK  147  A    between atoms: _366  and  _367
REMARK  148  A    between atoms: _370  and  _372
REMARK  149  A    between atoms: _372  and  _373
REMARK  150  A    between atoms: _372  and  _375
REMARK  151  A    between atoms: _375  and  _376
REMARK  152  A    between atoms: _379  and  _381
REMARK  153  A    between atoms: _381  and  _382
REMARK  154  A    between atoms: _381  and  _384
REMARK  155  A    between atoms: _384  and  _385
REMARK  156  A    between atoms: _385  and  _386
REMARK  157  A    between atoms: _388  and  _390
REMARK  158  A    between atoms: _390  and  _391
REMARK  159  A    between atoms: _390  and  _393
REMARK  160  A    between atoms: _396  and  _398
REMARK  161  A    between atoms: _398  and  _399
REMARK  162  A    between atoms: _401  and  _403
REMARK  163  A    between atoms: _403  and  _404
REMARK  164  A    between atoms: _406  and  _408
REMARK  165  A    between atoms: _408  and  _409
REMARK  166  A    between atoms: _408  and  _411
REMARK  167  A    between atoms: _411  and  _412
REMARK  168  A    between atoms: _415  and  _417
REMARK  169  A    between atoms: _417  and  _418
REMARK  170  A    between atoms: _420  and  _422
REMARK  171  A    between atoms: _422  and  _423
REMARK  172  A    between atoms: _425  and  _427
REMARK  173  A    between atoms: _427  and  _428
REMARK  174  A    between atoms: _427  and  _430
REMARK  175  A    between atoms: _430  and  _431
REMARK  176  A    between atoms: _437  and  _439
REMARK  177  A    between atoms: _439  and  _440
REMARK  178  A    between atoms: _439  and  _442
REMARK  179  A    between atoms: _442  and  _443
REMARK  180  A    between atoms: _446  and  _448
REMARK  181  A    between atoms: _448  and  _449
REMARK  182  A    between atoms: _448  and  _451
REMARK  183  A    between atoms: _454  and  _456
REMARK  184  A    between atoms: _456  and  _457
REMARK  185  A    between atoms: _456  and  _459
REMARK  186  A    between atoms: _459  and  _460
REMARK  187  A    between atoms: _463  and  _465
REMARK  188  A    between atoms: _465  and  _466
REMARK  189  A    between atoms: _465  and  _468
REMARK  190  A    between atoms: _468  and  _469
REMARK  191  A    between atoms: _473  and  _474
REMARK  192  A    between atoms: _479  and  _481
REMARK  193  A    between atoms: _481  and  _482
REMARK  194  A    between atoms: _481  and  _484
REMARK  195  A    between atoms: _487  and  _489
REMARK  196  A    between atoms: _489  and  _490
REMARK  197  A    between atoms: _489  and  _492
REMARK  198  A    between atoms: _492  and  _493
REMARK  199  A    between atoms: _498  and  _500
REMARK  200  A    between atoms: _500  and  _501
REMARK  201  A    between atoms: _500  and  _503
REMARK  202  A    between atoms: _506  and  _508
REMARK  203  A    between atoms: _508  and  _509
REMARK  204  A    between atoms: _508  and  _511
REMARK  205  A    between atoms: _511  and  _512
REMARK  206  A    between atoms: _515  and  _517
REMARK  207  A    between atoms: _517  and  _518
REMARK  208  A    between atoms: _520  and  _522
REMARK  209  A    between atoms: _522  and  _523
REMARK  210  A    between atoms: _522  and  _525
REMARK  211  A    between atoms: _525  and  _526
REMARK  212  A    between atoms: _526  and  _527
REMARK  213  A    between atoms: _527  and  _528
REMARK  214  A    between atoms: _537  and  _539
REMARK  215  A    between atoms: _539  and  _540
REMARK  216  A    between atoms: _539  and  _542
REMARK  217  A    between atoms: _542  and  _543
REMARK                            x       y       z     vdW  Elec       q    Type
REMARK                         _______ _______ _______ _____ _____    ______ ____
ROOT
ATOM      1  O   HOH     1     -22.118   5.911 -10.131  0.00  0.00    +0.000 OA
ENDROOT
TORSDOF 0
REMARK  Name = ../refined-set-2016/4yhq/4yhq_pocket.pdb
REMARK  217 active torsions:
REMARK  status: ('A' for Active; 'I' for Inactive)
REMARK    1  A    between atoms: _1  and  _3
REMARK    2  A    between atoms: _3  and  _4
REMARK    3  A    between atoms: _3  and  _6
REMARK    4  A    between atoms: _6  and  _7
REMARK    5  A    between atoms: _7  and  _8
REMARK    6  A    between atoms: _8  and  _9
REMARK    7  A    between atoms: _18  and  _20
REMARK    8  A    between atoms: _20  and  _21
REMARK    9  A    between atoms: _20  and  _23
REMARK   10  A    between atoms: _23  and  _24
REMARK   11  A    between atoms: _30  and  _32
REMARK   12  A    between atoms: _32  and  _33
REMARK   13  A    between atoms: _32  and  _35
REMARK   14  A    between atoms: _35  and  _36
REMARK   15  A    between atoms: _39  and  _41
REMARK   16  A    between atoms: _41  and  _42
REMARK   17  A    between atoms: _41  and  _44
REMARK   18  A    between atoms: _44  and  _45
REMARK   19  A    between atoms: _48  and  _50
REMARK   20  A    between atoms: _50  and  _51
REMARK   21  A    between atoms: _50  and  _53
REMARK   22  A    between atoms: _53  and  _54
REMARK   23  A    between atoms: _57  and  _59
REMARK   24  A    between atoms: _59  and  _60
REMARK   25  A    between atoms: _59  and  _62
REMARK   26  A    between atoms: _62  and  _63
REMARK   27  A    between atoms: _66  and  _68
REMARK   28  A    between atoms: _68  and  _69
REMARK   29  A    between atoms: _71  and  _73
REMARK   30  A    between atoms: _73  and  _74
REMARK   31  A    between atoms: _77  and  _79
REMARK   32  A    between atoms: _79  and  _80
REMARK   33  A    between atoms: _79  and  _82
REMARK   34  A    between atoms: _82  and  _83
REMARK   35  A    between atoms: _86  and  _88
REMARK   36  A    between atoms: _88  and  _89
REMARK   37  A    between atoms: _88  and  _91
REMARK   38  A    between atoms: _91  and  _92
REMARK   39  A    between atoms: _97  and  _99
REMARK   40  A    between atoms: _99  and  _100
REMARK   41  A    between atoms: _99  and  _102
REMARK   42  A    between atoms: _102  and  _103
REMARK   43  A    between atoms: _106  and  _108
REMARK   44  A    between atoms: _108  and  _109
REMARK   45  A    between atoms: _108  and  _111
REMARK   46  A    between atoms: _111  and  _112
REMARK   47  A    between atoms: _115  and  _117
REMARK   48  A    between atoms: _117  and  _118
REMARK   49  A    between atoms: _117  and  _120
REMARK   50  A    between atoms: _120  and  _121
REMARK   51  A    between atoms: _121  and  _122
REMARK   52  A    between atoms: _124  and  _126
REMARK   53  A    between atoms: _126  and  _127
REMARK   54  A    between atoms: _126  and  _129
REMARK   55  A    between atoms: _132  and  _134
REMARK   56  A    between atoms: _134  and  _135
REMARK   57  A    between atoms: _137  and  _139
REMARK   58  A    between atoms: _139  and  _140
REMARK   59  A    between atoms: _142  and  _144
REMARK   60  A    between atoms: _144  and  _145
REMARK   61  A    between atoms: _144  and  _147
REMARK   62  A    between atoms: _147  and  _148
REMARK   63  A    between atoms: _151  and  _153
REMARK   64  A    between atoms: _153  and  _154
REMARK   65  A    between atoms: _156  and  _158
REMARK   66  A    between atoms: _158  and  _159
REMARK   67  A    between atoms: _161  and  _163
REMARK   68  A    between atoms: _163  and  _164
REMARK   69  A    between atoms: _163  and  _166
REMARK   70  A    between atoms: _166  and  _167
REMARK   71  A    between atoms: _173  and  _175
REMARK   72  A    between atoms: _175  and  _176
REMARK   73  A    between atoms: _175  and  _178
REMARK   74  A    between atoms: _178  and  _179
REMARK   75  A    between atoms: _182  and  _184
REMARK   76  A    between atoms: _184  and  _185
REMARK   77  A    between atoms: _184  and  _187
REMARK   78  A    between atoms: _187  and  _188
REMARK   79  A    between atoms: _191  and  _193
REMARK   80  A    between atoms: _193  and  _194
REMARK   81  A    between atoms: _193  and  _196
REMARK   82  A    between atoms: _196  and  _197
REMARK   83  A    between atoms: _201  and  _202
REMARK   84  A    between atoms: _207  and  _209
REMARK   85  A    between atoms: _209  and  _210
REMARK   86  A    between atoms: _209  and  _212
REMARK   87  A    between atoms: _215  and  _217
REMARK   88  A    between atoms: _217  and  _218
REMARK   89  A    between atoms: _217  and  _220
REMARK   90  A    between atoms: _220  and  _221
REMARK   91  A    between atoms: _226  and  _228
REMARK   92  A    between atoms: _228  and  _229
REMARK   93  A    between atoms: _228  and  _231
REMARK   94  A    between atoms: _234  and  _236
REMARK   95  A    between atoms: _236  and  _237
REMARK   96  A    between atoms: _239  and  _241
REMARK   97  A    between atoms: _241  and  _242
REMARK   98  A    between atoms: _241  and  _244
REMARK   99  A    between atoms: _244  and  _245
REMARK  100  A    between atoms: _245  and  _246
REMARK  101  A    between atoms: _246  and  _247
REMARK  102  A    between atoms: _256  and  _258
REMARK  103  A    between atoms: _258  and  _259
REMARK  104  A    between atoms: _258  and  _261
REMARK  105  A    between atoms: _261  and  _262
REMARK  106  A    between atoms: _265  and  _267
REMARK  107  A    between atoms: _267  and  _268
REMARK  108  A    between atoms: _267  and  _270
REMARK  109  A    between atoms: _270  and  _271
REMARK  110  A    between atoms: _271  and  _272
REMARK  111  A    between atoms: _272  and  _273
REMARK  112  A    between atoms: _282  and  _284
REMARK  113  A    between atoms: _284  and  _285
REMARK  114  A    between atoms: _284  and  _287
REMARK  115  A    between atoms: _287  and  _288
REMARK  116  A    between atoms: _294  and  _296
REMARK  117  A    between atoms: _296  and  _297
REMARK  118  A    between atoms: _296  and  _299
REMARK  119  A    between atoms: _299  and  _300
REMARK  120  A    between atoms: _303  and  _305
REMARK  121  A    between atoms: _305  and  _306
REMARK  122  A    between atoms: _305  and  _308
REMARK  123  A    between atoms: _308  and  _309
REMARK  124  A    between atoms: _312  and  _314
REMARK  125  A    between atoms: _314  and  _315
REMARK  126  A    between atoms: _314  and  _317
REMARK  127  A    between atoms: _317  and  _318
REMARK  128  A    between atoms: _321  and  _323
REMARK  129  A    between atoms: _323  and  _324
REMARK  130  A    between atoms: _323  and  _326
REMARK  131  A    between atoms: _326  and  _327
REMARK  132  A    between atoms: _330  and  _332
REMARK  133  A    between atoms: _332  and  _333
REMARK  134  A    between atoms: _335  and  _337
REMARK  135  A    between atoms: _337  and  _338
REMARK  136  A    between atoms: _341  and  _343
REMARK  137  A    between atoms: _343  and  _344
REMARK  138  A    between atoms: _343  and  _346
REMARK  139  A    between atoms: _346  and  _347
REMARK  140  A    between atoms: _350  and  _352
REMARK  141  A    between atoms: _352  and  _353
REMARK  142  A    between atoms: _352  and  _355
REMARK  143  A    between atoms: _355  and  _356
REMARK  144  A    between atoms: _361  and  _363
REMARK  145  A    between atoms: _363  and  _364
REMARK  146  A    between atoms: _363  and  _366
REMARK  147  A    between atoms: _366  and  _367
REMARK  148  A    between atoms: _370  and  _372
REMARK  149  A    between atoms: _372  and  _373
REMARK  150  A    between atoms: _372  and  _375
REMARK  151  A    between atoms: _375  and  _376
REMARK  152  A    between atoms: _379  and  _381
REMARK  153  A    between atoms: _381  and  _382
REMARK  154  A    between atoms: _381  and  _384
REMARK  155  A    between atoms: _384  and  _385
REMARK  156  A    between atoms: _385  and  _386
REMARK  157  A    between atoms: _388  and  _390
REMARK  158  A    between atoms: _390  and  _391
REMARK  159  A    between atoms: _390  and  _393
REMARK  160  A    between atoms: _396  and  _398
REMARK  161  A    between atoms: _398  and  _399
REMARK  162  A    between atoms: _401  and  _403
REMARK  163  A    between atoms: _403  and  _404
REMARK  164  A    between atoms: _406  and  _408
REMARK  165  A    between atoms: _408  and  _409
REMARK  166  A    between atoms: _408  and  _411
REMARK  167  A    between atoms: _411  and  _412
REMARK  168  A    between atoms: _415  and  _417
REMARK  169  A    between atoms: _417  and  _418
REMARK  170  A    between atoms: _420  and  _422
REMARK  171  A    between atoms: _422  and  _423
REMARK  172  A    between atoms: _425  and  _427
REMARK  173  A    between atoms: _427  and  _428
REMARK  174  A    between atoms: _427  and  _430
REMARK  175  A    between atoms: _430  and  _431
REMARK  176  A    between atoms: _437  and  _439
REMARK  177  A    between atoms: _439  and  _440
REMARK  178  A    between atoms: _439  and  _442
REMARK  179  A    between atoms: _442  and  _443
REMARK  180  A    between atoms: _446  and  _448
REMARK  181  A    between atoms: _448  and  _449
REMARK  182  A    between atoms: _448  and  _451
REMARK  183  A    between atoms: _454  and  _456
REMARK  184  A    between atoms: _456  and  _457
REMARK  185  A    between atoms: _456  and  _459
REMARK  186  A    between atoms: _459  and  _460
REMARK  187  A    between atoms: _463  and  _465
REMARK  188  A    between atoms: _465  and  _466
REMARK  189  A    between atoms: _465  and  _468
REMARK  190  A    between atoms: _468  and  _469
REMARK  191  A    between atoms: _473  and  _474
REMARK  192  A    between atoms: _479  and  _481
REMARK  193  A    between atoms: _481  and  _482
REMARK  194  A    between atoms: _481  and  _484
REMARK  195  A    between atoms: _487  and  _489
REMARK  196  A    between atoms: _489  and  _490
REMARK  197  A    between atoms: _489  and  _492
REMARK  198  A    between atoms: _492  and  _493
REMARK  199  A    between atoms: _498  and  _500
REMARK  200  A    between atoms: _500  and  _501
REMARK  201  A    between atoms: _500  and  _503
REMARK  202  A    between atoms: _506  and  _508
REMARK  203  A    between atoms: _508  and  _509
REMARK  204  A    between atoms: _508  and  _511
REMARK  205  A    between atoms: _511  and  _512
REMARK  206  A    between atoms: _515  and  _517
REMARK  207  A    between atoms: _517  and  _518
REMARK  208  A    between atoms: _520  and  _522
REMARK  209  A    between atoms: _522  and  _523
REMARK  210  A    between atoms: _522  and  _525
REMARK  211  A    between atoms: _525  and  _526
REMARK  212  A    between atoms: _526  and  _527
REMARK  213  A    between atoms: _527  and  _528
REMARK  214  A    between atoms: _537  and  _539
REMARK  215  A    between atoms: _539  and  _540
REMARK  216  A    between atoms: _539  and  _542
REMARK  217  A    between atoms: _542  and  _543
REMARK                            x       y       z     vdW  Elec       q    Type
REMARK                         _______ _______ _______ _____ _____    ______ ____
ROOT
ATOM      1  O   HOH     1     -16.220   4.306  -2.897  0.00  0.00    +0.000 OA
ENDROOT
TORSDOF 0
REMARK  Name = ../refined-set-2016/4yhq/4yhq_pocket.pdb
REMARK  217 active torsions:
REMARK  status: ('A' for Active; 'I' for Inactive)
REMARK    1  A    between atoms: _1  and  _3
REMARK    2  A    between atoms: _3  and  _4
REMARK    3  A    between atoms: _3  and  _6
REMARK    4  A    between atoms: _6  and  _7
REMARK    5  A    between atoms: _7  and  _8
REMARK    6  A    between atoms: _8  and  _9
REMARK    7  A    between atoms: _18  and  _20
REMARK    8  A    between atoms: _20  and  _21
REMARK    9  A    between atoms: _20  and  _23
REMARK   10  A    between atoms: _23  and  _24
REMARK   11  A    between atoms: _30  and  _32
REMARK   12  A    between atoms: _32  and  _33
REMARK   13  A    between atoms: _32  and  _35
REMARK   14  A    between atoms: _35  and  _36
REMARK   15  A    between atoms: _39  and  _41
REMARK   16  A    between atoms: _41  and  _42
REMARK   17  A    between atoms: _41  and  _44
REMARK   18  A    between atoms: _44  and  _45
REMARK   19  A    between atoms: _48  and  _50
REMARK   20  A    between atoms: _50  and  _51
REMARK   21  A    between atoms: _50  and  _53
REMARK   22  A    between atoms: _53  and  _54
REMARK   23  A    between atoms: _57  and  _59
REMARK   24  A    between atoms: _59  and  _60
REMARK   25  A    between atoms: _59  and  _62
REMARK   26  A    between atoms: _62  and  _63
REMARK   27  A    between atoms: _66  and  _68
REMARK   28  A    between atoms: _68  and  _69
REMARK   29  A    between atoms: _71  and  _73
REMARK   30  A    between atoms: _73  and  _74
REMARK   31  A    between atoms: _77  and  _79
REMARK   32  A    between atoms: _79  and  _80
REMARK   33  A    between atoms: _79  and  _82
REMARK   34  A    between atoms: _82  and  _83
REMARK   35  A    between atoms: _86  and  _88
REMARK   36  A    between atoms: _88  and  _89
REMARK   37  A    between atoms: _88  and  _91
REMARK   38  A    between atoms: _91  and  _92
REMARK   39  A    between atoms: _97  and  _99
REMARK   40  A    between atoms: _99  and  _100
REMARK   41  A    between atoms: _99  and  _102
REMARK   42  A    between atoms: _102  and  _103
REMARK   43  A    between atoms: _106  and  _108
REMARK   44  A    between atoms: _108  and  _109
REMARK   45  A    between atoms: _108  and  _111
REMARK   46  A    between atoms: _111  and  _112
REMARK   47  A    between atoms: _115  and  _117
REMARK   48  A    between atoms: _117  and  _118
REMARK   49  A    between atoms: _117  and  _120
REMARK   50  A    between atoms: _120  and  _121
REMARK   51  A    between atoms: _121  and  _122
REMARK   52  A    between atoms: _124  and  _126
REMARK   53  A    between atoms: _126  and  _127
REMARK   54  A    between atoms: _126  and  _129
REMARK   55  A    between atoms: _132  and  _134
REMARK   56  A    between atoms: _134  and  _135
REMARK   57  A    between atoms: _137  and  _139
REMARK   58  A    between atoms: _139  and  _140
REMARK   59  A    between atoms: _142  and  _144
REMARK   60  A    between atoms: _144  and  _145
REMARK   61  A    between atoms: _144  and  _147
REMARK   62  A    between atoms: _147  and  _148
REMARK   63  A    between atoms: _151  and  _153
REMARK   64  A    between atoms: _153  and  _154
REMARK   65  A    between atoms: _156  and  _158
REMARK   66  A    between atoms: _158  and  _159
REMARK   67  A    between atoms: _161  and  _163
REMARK   68  A    between atoms: _163  and  _164
REMARK   69  A    between atoms: _163  and  _166
REMARK   70  A    between atoms: _166  and  _167
REMARK   71  A    between atoms: _173  and  _175
REMARK   72  A    between atoms: _175  and  _176
REMARK   73  A    between atoms: _175  and  _178
REMARK   74  A    between atoms: _178  and  _179
REMARK   75  A    between atoms: _182  and  _184
REMARK   76  A    between atoms: _184  and  _185
REMARK   77  A    between atoms: _184  and  _187
REMARK   78  A    between atoms: _187  and  _188
REMARK   79  A    between atoms: _191  and  _193
REMARK   80  A    between atoms: _193  and  _194
REMARK   81  A    between atoms: _193  and  _196
REMARK   82  A    between atoms: _196  and  _197
REMARK   83  A    between atoms: _201  and  _202
REMARK   84  A    between atoms: _207  and  _209
REMARK   85  A    between atoms: _209  and  _210
REMARK   86  A    between atoms: _209  and  _212
REMARK   87  A    between atoms: _215  and  _217
REMARK   88  A    between atoms: _217  and  _218
REMARK   89  A    between atoms: _217  and  _220
REMARK   90  A    between atoms: _220  and  _221
REMARK   91  A    between atoms: _226  and  _228
REMARK   92  A    between atoms: _228  and  _229
REMARK   93  A    between atoms: _228  and  _231
REMARK   94  A    between atoms: _234  and  _236
REMARK   95  A    between atoms: _236  and  _237
REMARK   96  A    between atoms: _239  and  _241
REMARK   97  A    between atoms: _241  and  _242
REMARK   98  A    between atoms: _241  and  _244
REMARK   99  A    between atoms: _244  and  _245
REMARK  100  A    between atoms: _245  and  _246
REMARK  101  A    between atoms: _246  and  _247
REMARK  102  A    between atoms: _256  and  _258
REMARK  103  A    between atoms: _258  and  _259
REMARK  104  A    between atoms: _258  and  _261
REMARK  105  A    between atoms: _261  and  _262
REMARK  106  A    between atoms: _265  and  _267
REMARK  107  A    between atoms: _267  and  _268
REMARK  108  A    between atoms: _267  and  _270
REMARK  109  A    between atoms: _270  and  _271
REMARK  110  A    between atoms: _271  and  _272
REMARK  111  A    between atoms: _272  and  _273
REMARK  112  A    between atoms: _282  and  _284
REMARK  113  A    between atoms: _284  and  _285
REMARK  114  A    between atoms: _284  and  _287
REMARK  115  A    between atoms: _287  and  _288
REMARK  116  A    between atoms: _294  and  _296
REMARK  117  A    between atoms: _296  and  _297
REMARK  118  A    between atoms: _296  and  _299
REMARK  119  A    between atoms: _299  and  _300
REMARK  120  A    between atoms: _303  and  _305
REMARK  121  A    between atoms: _305  and  _306
REMARK  122  A    between atoms: _305  and  _308
REMARK  123  A    between atoms: _308  and  _309
REMARK  124  A    between atoms: _312  and  _314
REMARK  125  A    between atoms: _314  and  _315
REMARK  126  A    between atoms: _314  and  _317
REMARK  127  A    between atoms: _317  and  _318
REMARK  128  A    between atoms: _321  and  _323
REMARK  129  A    between atoms: _323  and  _324
REMARK  130  A    between atoms: _323  and  _326
REMARK  131  A    between atoms: _326  and  _327
REMARK  132  A    between atoms: _330  and  _332
REMARK  133  A    between atoms: _332  and  _333
REMARK  134  A    between atoms: _335  and  _337
REMARK  135  A    between atoms: _337  and  _338
REMARK  136  A    between atoms: _341  and  _343
REMARK  137  A    between atoms: _343  and  _344
REMARK  138  A    between atoms: _343  and  _346
REMARK  139  A    between atoms: _346  and  _347
REMARK  140  A    between atoms: _350  and  _352
REMARK  141  A    between atoms: _352  and  _353
REMARK  142  A    between atoms: _352  and  _355
REMARK  143  A    between atoms: _355  and  _356
REMARK  144  A    between atoms: _361  and  _363
REMARK  145  A    between atoms: _363  and  _364
REMARK  146  A    between atoms: _363  and  _366
REMARK  147  A    between atoms: _366  and  _367
REMARK  148  A    between atoms: _370  and  _372
REMARK  149  A    between atoms: _372  and  _373
REMARK  150  A    between atoms: _372  and  _375
REMARK  151  A    between atoms: _375  and  _376
REMARK  152  A    between atoms: _379  and  _381
REMARK  153  A    between atoms: _381  and  _382
REMARK  154  A    between atoms: _381  and  _384
REMARK  155  A    between atoms: _384  and  _385
REMARK  156  A    between atoms: _385  and  _386
REMARK  157  A    between atoms: _388  and  _390
REMARK  158  A    between atoms: _390  and  _391
REMARK  159  A    between atoms: _390  and  _393
REMARK  160  A    between atoms: _396  and  _398
REMARK  161  A    between atoms: _398  and  _399
REMARK  162  A    between atoms: _401  and  _403
REMARK  163  A    between atoms: _403  and  _404
REMARK  164  A    between atoms: _406  and  _408
REMARK  165  A    between atoms: _408  and  _409
REMARK  166  A    between atoms: _408  and  _411
REMARK  167  A    between atoms: _411  and  _412
REMARK  168  A    between atoms: _415  and  _417
REMARK  169  A    between atoms: _417  and  _418
REMARK  170  A    between atoms: _420  and  _422
REMARK  171  A    between atoms: _422  and  _423
REMARK  172  A    between atoms: _425  and  _427
REMARK  173  A    between atoms: _427  and  _428
REMARK  174  A    between atoms: _427  and  _430
REMARK  175  A    between atoms: _430  and  _431
REMARK  176  A    between atoms: _437  and  _439
REMARK  177  A    between atoms: _439  and  _440
REMARK  178  A    between atoms: _439  and  _442
REMARK  179  A    between atoms: _442  and  _443
REMARK  180  A    between atoms: _446  and  _448
REMARK  181  A    between atoms: _448  and  _449
REMARK  182  A    between atoms: _448  and  _451
REMARK  183  A    between atoms: _454  and  _456
REMARK  184  A    between atoms: _456  and  _457
REMARK  185  A    between atoms: _456  and  _459
REMARK  186  A    between atoms: _459  and  _460
REMARK  187  A    between atoms: _463  and  _465
REMARK  188  A    between atoms: _465  and  _466
REMARK  189  A    between atoms: _465  and  _468
REMARK  190  A    between atoms: _468  and  _469
REMARK  191  A    between atoms: _473  and  _474
REMARK  192  A    between atoms: _479  and  _481
REMARK  193  A    between atoms: _481  and  _482
REMARK  194  A    between atoms: _481  and  _484
REMARK  195  A    between atoms: _487  and  _489
REMARK  196  A    between atoms: _489  and  _490
REMARK  197  A    between atoms: _489  and  _492
REMARK  198  A    between atoms: _492  and  _493
REMARK  199  A    between atoms: _498  and  _500
REMARK  200  A    between atoms: _500  and  _501
REMARK  201  A    between atoms: _500  and  _503
REMARK  202  A    between atoms: _506  and  _508
REMARK  203  A    between atoms: _508  and  _509
REMARK  204  A    between atoms: _508  and  _511
REMARK  205  A    between atoms: _511  and  _512
REMARK  206  A    between atoms: _515  and  _517
REMARK  207  A    between atoms: _517  and  _518
REMARK  208  A    between atoms: _520  and  _522
REMARK  209  A    between atoms: _522  and  _523
REMARK  210  A    between atoms: _522  and  _525
REMARK  211  A    between atoms: _525  and  _526
REMARK  212  A    between atoms: _526  and  _527
REMARK  213  A    between atoms: _527  and  _528
REMARK  214  A    between atoms: _537  and  _539
REMARK  215  A    between atoms: _539  and  _540
REMARK  216  A    between atoms: _539  and  _542
REMARK  217  A    between atoms: _542  and  _543
REMARK                            x       y       z     vdW  Elec       q    Type
REMARK                         _______ _______ _______ _____ _____    ______ ____
ROOT
ATOM      1  O   HOH     1     -17.249   2.007  -8.605  0.00  0.00    +0.000 OA
ENDROOT
TORSDOF 0
