REMARK  Name = ../refined-set-2016/3adv/3adv_pocket.pdb
REMARK  146 active torsions:
REMARK  status: ('A' for Active; 'I' for Inactive)
REMARK    1  A    between atoms: _1  and  _3
REMARK    2  A    between atoms: _3  and  _4
REMARK    3  A    between atoms: _3  and  _6
REMARK    4  A    between atoms: _6  and  _7
REMARK    5  A    between atoms: _10  and  _12
REMARK    6  A    between atoms: _12  and  _13
REMARK    7  A    between atoms: _12  and  _15
REMARK    8  A    between atoms: _15  and  _16
REMARK    9  A    between atoms: _22  and  _24
REMARK   10  A    between atoms: _24  and  _25
REMARK   11  A    between atoms: _27  and  _29
REMARK   12  A    between atoms: _29  and  _30
REMARK   13  A    between atoms: _29  and  _32
REMARK   14  A    between atoms: _34  and  _36
REMARK   15  A    between atoms: _36  and  _37
REMARK   16  A    between atoms: _36  and  _39
REMARK   17  A    between atoms: _39  and  _40
REMARK   18  A    between atoms: _40  and  _41
REMARK   19  A    between atoms: _46  and  _48
REMARK   20  A    between atoms: _48  and  _49
REMARK   21  A    between atoms: _48  and  _51
REMARK   22  A    between atoms: _51  and  _52
REMARK   23  A    between atoms: _58  and  _60
REMARK   24  A    between atoms: _60  and  _61
REMARK   25  A    between atoms: _60  and  _63
REMARK   26  A    between atoms: _63  and  _64
REMARK   27  A    between atoms: _64  and  _65
REMARK   28  A    between atoms: _65  and  _66
REMARK   29  A    between atoms: _75  and  _77
REMARK   30  A    between atoms: _77  and  _78
REMARK   31  A    between atoms: _77  and  _80
REMARK   32  A    between atoms: _80  and  _81
REMARK   33  A    between atoms: _83  and  _85
REMARK   34  A    between atoms: _85  and  _86
REMARK   35  A    between atoms: _85  and  _88
REMARK   36  A    between atoms: _91  and  _93
REMARK   37  A    between atoms: _93  and  _94
REMARK   38  A    between atoms: _93  and  _96
REMARK   39  A    between atoms: _96  and  _97
REMARK   40  A    between atoms: _97  and  _98
REMARK   41  A    between atoms: _101  and  _103
REMARK   42  A    between atoms: _103  and  _104
REMARK   43  A    between atoms: _107  and  _109
REMARK   44  A    between atoms: _109  and  _110
REMARK   45  A    between atoms: _109  and  _112
REMARK   46  A    between atoms: _115  and  _117
REMARK   47  A    between atoms: _117  and  _118
REMARK   48  A    between atoms: _117  and  _120
REMARK   49  A    between atoms: _120  and  _121
REMARK   50  A    between atoms: _126  and  _128
REMARK   51  A    between atoms: _128  and  _129
REMARK   52  A    between atoms: _128  and  _131
REMARK   53  A    between atoms: _131  and  _132
REMARK   54  A    between atoms: _135  and  _137
REMARK   55  A    between atoms: _137  and  _138
REMARK   56  A    between atoms: _137  and  _140
REMARK   57  A    between atoms: _140  and  _141
REMARK   58  A    between atoms: _146  and  _147
REMARK   59  A    between atoms: _149  and  _151
REMARK   60  A    between atoms: _151  and  _152
REMARK   61  A    between atoms: _151  and  _154
REMARK   62  A    between atoms: _154  and  _155
REMARK   63  A    between atoms: _155  and  _156
REMARK   64  A    between atoms: _158  and  _160
REMARK   65  A    between atoms: _160  and  _161
REMARK   66  A    between atoms: _160  and  _163
REMARK   67  A    between atoms: _163  and  _164
REMARK   68  A    between atoms: _167  and  _169
REMARK   69  A    between atoms: _169  and  _170
REMARK   70  A    between atoms: _169  and  _172
REMARK   71  A    between atoms: _172  and  _173
REMARK   72  A    between atoms: _176  and  _178
REMARK   73  A    between atoms: _178  and  _179
REMARK   74  A    between atoms: _178  and  _181
REMARK   75  A    between atoms: _181  and  _182
REMARK   76  A    between atoms: _182  and  _183
REMARK   77  A    between atoms: _185  and  _187
REMARK   78  A    between atoms: _187  and  _188
REMARK   79  A    between atoms: _187  and  _190
REMARK   80  A    between atoms: _193  and  _195
REMARK   81  A    between atoms: _195  and  _196
REMARK   82  A    between atoms: _195  and  _198
REMARK   83  A    between atoms: _198  and  _199
REMARK   84  A    between atoms: _202  and  _204
REMARK   85  A    between atoms: _204  and  _205
REMARK   86  A    between atoms: _204  and  _207
REMARK   87  A    between atoms: _207  and  _208
REMARK   88  A    between atoms: _211  and  _213
REMARK   89  A    between atoms: _213  and  _214
REMARK   90  A    between atoms: _213  and  _216
REMARK   91  A    between atoms: _216  and  _217
REMARK   92  A    between atoms: _219  and  _221
REMARK   93  A    between atoms: _221  and  _222
REMARK   94  A    between atoms: _221  and  _224
REMARK   95  A    between atoms: _224  and  _225
REMARK   96  A    between atoms: _225  and  _226
REMARK   97  A    between atoms: _229  and  _231
REMARK   98  A    between atoms: _231  and  _232
REMARK   99  A    between atoms: _231  and  _234
REMARK  100  A    between atoms: _234  and  _235
REMARK  101  A    between atoms: _235  and  _236
REMARK  102  A    between atoms: _238  and  _240
REMARK  103  A    between atoms: _240  and  _241
REMARK  104  A    between atoms: _240  and  _243
REMARK  105  A    between atoms: _243  and  _244
REMARK  106  A    between atoms: _247  and  _249
REMARK  107  A    between atoms: _249  and  _250
REMARK  108  A    between atoms: _249  and  _252
REMARK  109  A    between atoms: _252  and  _253
REMARK  110  A    between atoms: _259  and  _261
REMARK  111  A    between atoms: _261  and  _262
REMARK  112  A    between atoms: _261  and  _264
REMARK  113  A    between atoms: _264  and  _265
REMARK  114  A    between atoms: _265  and  _266
REMARK  115  A    between atoms: _268  and  _270
REMARK  116  A    between atoms: _270  and  _271
REMARK  117  A    between atoms: _270  and  _273
REMARK  118  A    between atoms: _273  and  _274
REMARK  119  A    between atoms: _274  and  _275
REMARK  120  A    between atoms: _275  and  _276
REMARK  121  A    between atoms: _276  and  _277
REMARK  122  A    between atoms: _281  and  _283
REMARK  123  A    between atoms: _283  and  _284
REMARK  124  A    between atoms: _283  and  _286
REMARK  125  A    between atoms: _286  and  _287
REMARK  126  A    between atoms: _293  and  _295
REMARK  127  A    between atoms: _295  and  _296
REMARK  128  A    between atoms: _295  and  _298
REMARK  129  A    between atoms: _298  and  _299
REMARK  130  A    between atoms: _302  and  _304
REMARK  131  A    between atoms: _304  and  _305
REMARK  132  A    between atoms: _304  and  _307
REMARK  133  A    between atoms: _307  and  _308
REMARK  134  A    between atoms: _313  and  _315
REMARK  135  A    between atoms: _315  and  _316
REMARK  136  A    between atoms: _315  and  _318
REMARK  137  A    between atoms: _318  and  _319
REMARK  138  A    between atoms: _322  and  _324
REMARK  139  A    between atoms: _324  and  _325
REMARK  140  A    between atoms: _324  and  _327
REMARK  141  A    between atoms: _327  and  _328
REMARK  142  A    between atoms: _331  and  _333
REMARK  143  A    between atoms: _333  and  _334
REMARK  144  A    between atoms: _333  and  _336
REMARK  145  A    between atoms: _336  and  _337
REMARK  146  A    between atoms: _342  and  _343
REMARK                            x       y       z     vdW  Elec       q    Type
REMARK                         _______ _______ _______ _____ _____    ______ ____
ROOT
ATOM      1  C   ILE A   1      21.512  71.118  10.866  0.00  0.00    +0.238 C 
ATOM      2  N   PHE A   2      22.547  71.238  11.692  0.00  0.00    -0.298 N 
ATOM      3  H   PHE A   2      23.390  71.763  11.384  0.00  0.00    +0.150 HD
ATOM      4  O   ILE A   1      20.487  70.511  11.165  0.00  0.00    -0.274 OA
ENDROOT
BRANCH   1   5
ATOM      5  CA  ILE A   1      21.651  71.772   9.498  0.00  0.00    +0.145 C 
BRANCH   5   6
ATOM      6  N   ILE A   1      22.273  73.087   9.590  0.00  0.00    -0.238 NA
ATOM      7  H   ILE A   1      23.157  73.262   9.070  0.00  0.00    +0.142 HD
ENDBRANCH   5   6
BRANCH   5   8
ATOM      8  CB  ILE A   1      22.471  70.834   8.593  0.00  0.00    +0.025 C 
ATOM      9  CG2 ILE A   1      21.962  69.410   8.718  0.00  0.00    +0.002 C 
BRANCH   8  10
ATOM     10  CG1 ILE A   1      22.400  71.320   7.146  0.00  0.00    +0.002 C 
ATOM     11  CD1 ILE A   1      23.257  70.521   6.200  0.00  0.00    +0.000 C 
ENDBRANCH   8  10
ENDBRANCH   5   8
ENDBRANCH   1   5
BRANCH   2  12
ATOM     12  CA  PHE A   2      22.517  70.644  13.024  0.00  0.00    +0.141 C 
BRANCH  12  13
ATOM     13  C   PHE A   2      21.355  71.215  13.824  0.00  0.00    +0.227 C 
ATOM     14  O   PHE A   2      20.575  70.477  14.426  0.00  0.00    -0.286 OA
ENDBRANCH  12  13
BRANCH  12  15
ATOM     15  CB  PHE A   2      23.826  70.917  13.773  0.00  0.00    +0.054 C 
BRANCH  15  16
ATOM     16  CG  PHE A   2      23.928  70.193  15.088  0.00  0.00    -0.020 A 
ATOM     17  CD2 PHE A   2      23.790  70.880  16.292  0.00  0.00    -0.004 A 
ATOM     18  CE2 PHE A   2      23.847  70.205  17.511  0.00  0.00    -0.000 A 
ATOM     19  CZ  PHE A   2      24.046  68.830  17.534  0.00  0.00    -0.000 A 
ATOM     20  CE1 PHE A   2      24.187  68.134  16.337  0.00  0.00    -0.000 A 
ATOM     21  CD1 PHE A   2      24.128  68.816  15.123  0.00  0.00    -0.004 A 
ENDBRANCH  15  16
ENDBRANCH  12  15
ENDBRANCH   2  12
TORSDOF 8
REMARK  Name = ../refined-set-2016/3adv/3adv_pocket.pdb
REMARK  146 active torsions:
REMARK  status: ('A' for Active; 'I' for Inactive)
REMARK    1  A    between atoms: _1  and  _3
REMARK    2  A    between atoms: _3  and  _4
REMARK    3  A    between atoms: _3  and  _6
REMARK    4  A    between atoms: _6  and  _7
REMARK    5  A    between atoms: _10  and  _12
REMARK    6  A    between atoms: _12  and  _13
REMARK    7  A    between atoms: _12  and  _15
REMARK    8  A    between atoms: _15  and  _16
REMARK    9  A    between atoms: _22  and  _24
REMARK   10  A    between atoms: _24  and  _25
REMARK   11  A    between atoms: _27  and  _29
REMARK   12  A    between atoms: _29  and  _30
REMARK   13  A    between atoms: _29  and  _32
REMARK   14  A    between atoms: _34  and  _36
REMARK   15  A    between atoms: _36  and  _37
REMARK   16  A    between atoms: _36  and  _39
REMARK   17  A    between atoms: _39  and  _40
REMARK   18  A    between atoms: _40  and  _41
REMARK   19  A    between atoms: _46  and  _48
REMARK   20  A    between atoms: _48  and  _49
REMARK   21  A    between atoms: _48  and  _51
REMARK   22  A    between atoms: _51  and  _52
REMARK   23  A    between atoms: _58  and  _60
REMARK   24  A    between atoms: _60  and  _61
REMARK   25  A    between atoms: _60  and  _63
REMARK   26  A    between atoms: _63  and  _64
REMARK   27  A    between atoms: _64  and  _65
REMARK   28  A    between atoms: _65  and  _66
REMARK   29  A    between atoms: _75  and  _77
REMARK   30  A    between atoms: _77  and  _78
REMARK   31  A    between atoms: _77  and  _80
REMARK   32  A    between atoms: _80  and  _81
REMARK   33  A    between atoms: _83  and  _85
REMARK   34  A    between atoms: _85  and  _86
REMARK   35  A    between atoms: _85  and  _88
REMARK   36  A    between atoms: _91  and  _93
REMARK   37  A    between atoms: _93  and  _94
REMARK   38  A    between atoms: _93  and  _96
REMARK   39  A    between atoms: _96  and  _97
REMARK   40  A    between atoms: _97  and  _98
REMARK   41  A    between atoms: _101  and  _103
REMARK   42  A    between atoms: _103  and  _104
REMARK   43  A    between atoms: _107  and  _109
REMARK   44  A    between atoms: _109  and  _110
REMARK   45  A    between atoms: _109  and  _112
REMARK   46  A    between atoms: _115  and  _117
REMARK   47  A    between atoms: _117  and  _118
REMARK   48  A    between atoms: _117  and  _120
REMARK   49  A    between atoms: _120  and  _121
REMARK   50  A    between atoms: _126  and  _128
REMARK   51  A    between atoms: _128  and  _129
REMARK   52  A    between atoms: _128  and  _131
REMARK   53  A    between atoms: _131  and  _132
REMARK   54  A    between atoms: _135  and  _137
REMARK   55  A    between atoms: _137  and  _138
REMARK   56  A    between atoms: _137  and  _140
REMARK   57  A    between atoms: _140  and  _141
REMARK   58  A    between atoms: _146  and  _147
REMARK   59  A    between atoms: _149  and  _151
REMARK   60  A    between atoms: _151  and  _152
REMARK   61  A    between atoms: _151  and  _154
REMARK   62  A    between atoms: _154  and  _155
REMARK   63  A    between atoms: _155  and  _156
REMARK   64  A    between atoms: _158  and  _160
REMARK   65  A    between atoms: _160  and  _161
REMARK   66  A    between atoms: _160  and  _163
REMARK   67  A    between atoms: _163  and  _164
REMARK   68  A    between atoms: _167  and  _169
REMARK   69  A    between atoms: _169  and  _170
REMARK   70  A    between atoms: _169  and  _172
REMARK   71  A    between atoms: _172  and  _173
REMARK   72  A    between atoms: _176  and  _178
REMARK   73  A    between atoms: _178  and  _179
REMARK   74  A    between atoms: _178  and  _181
REMARK   75  A    between atoms: _181  and  _182
REMARK   76  A    between atoms: _182  and  _183
REMARK   77  A    between atoms: _185  and  _187
REMARK   78  A    between atoms: _187  and  _188
REMARK   79  A    between atoms: _187  and  _190
REMARK   80  A    between atoms: _193  and  _195
REMARK   81  A    between atoms: _195  and  _196
REMARK   82  A    between atoms: _195  and  _198
REMARK   83  A    between atoms: _198  and  _199
REMARK   84  A    between atoms: _202  and  _204
REMARK   85  A    between atoms: _204  and  _205
REMARK   86  A    between atoms: _204  and  _207
REMARK   87  A    between atoms: _207  and  _208
REMARK   88  A    between atoms: _211  and  _213
REMARK   89  A    between atoms: _213  and  _214
REMARK   90  A    between atoms: _213  and  _216
REMARK   91  A    between atoms: _216  and  _217
REMARK   92  A    between atoms: _219  and  _221
REMARK   93  A    between atoms: _221  and  _222
REMARK   94  A    between atoms: _221  and  _224
REMARK   95  A    between atoms: _224  and  _225
REMARK   96  A    between atoms: _225  and  _226
REMARK   97  A    between atoms: _229  and  _231
REMARK   98  A    between atoms: _231  and  _232
REMARK   99  A    between atoms: _231  and  _234
REMARK  100  A    between atoms: _234  and  _235
REMARK  101  A    between atoms: _235  and  _236
REMARK  102  A    between atoms: _238  and  _240
REMARK  103  A    between atoms: _240  and  _241
REMARK  104  A    between atoms: _240  and  _243
REMARK  105  A    between atoms: _243  and  _244
REMARK  106  A    between atoms: _247  and  _249
REMARK  107  A    between atoms: _249  and  _250
REMARK  108  A    between atoms: _249  and  _252
REMARK  109  A    between atoms: _252  and  _253
REMARK  110  A    between atoms: _259  and  _261
REMARK  111  A    between atoms: _261  and  _262
REMARK  112  A    between atoms: _261  and  _264
REMARK  113  A    between atoms: _264  and  _265
REMARK  114  A    between atoms: _265  and  _266
REMARK  115  A    between atoms: _268  and  _270
REMARK  116  A    between atoms: _270  and  _271
REMARK  117  A    between atoms: _270  and  _273
REMARK  118  A    between atoms: _273  and  _274
REMARK  119  A    between atoms: _274  and  _275
REMARK  120  A    between atoms: _275  and  _276
REMARK  121  A    between atoms: _276  and  _277
REMARK  122  A    between atoms: _281  and  _283
REMARK  123  A    between atoms: _283  and  _284
REMARK  124  A    between atoms: _283  and  _286
REMARK  125  A    between atoms: _286  and  _287
REMARK  126  A    between atoms: _293  and  _295
REMARK  127  A    between atoms: _295  and  _296
REMARK  128  A    between atoms: _295  and  _298
REMARK  129  A    between atoms: _298  and  _299
REMARK  130  A    between atoms: _302  and  _304
REMARK  131  A    between atoms: _304  and  _305
REMARK  132  A    between atoms: _304  and  _307
REMARK  133  A    between atoms: _307  and  _308
REMARK  134  A    between atoms: _313  and  _315
REMARK  135  A    between atoms: _315  and  _316
REMARK  136  A    between atoms: _315  and  _318
REMARK  137  A    between atoms: _318  and  _319
REMARK  138  A    between atoms: _322  and  _324
REMARK  139  A    between atoms: _324  and  _325
REMARK  140  A    between atoms: _324  and  _327
REMARK  141  A    between atoms: _327  and  _328
REMARK  142  A    between atoms: _331  and  _333
REMARK  143  A    between atoms: _333  and  _334
REMARK  144  A    between atoms: _333  and  _336
REMARK  145  A    between atoms: _336  and  _337
REMARK  146  A    between atoms: _342  and  _343
REMARK                            x       y       z     vdW  Elec       q    Type
REMARK                         _______ _______ _______ _____ _____    ______ ____
ROOT
ATOM      1  CA  ARG A   5      13.244  68.598  14.863  0.00  0.00    +0.149 C 
ENDROOT
BRANCH   1   2
ATOM      2  C   ARG A   5      13.054  67.571  15.978  0.00  0.00    +0.241 C 
ATOM      3  N   SER A   6      14.110  67.363  16.760  0.00  0.00    -0.295 N 
ATOM      4  H   SER A   6      14.991  67.882  16.571  0.00  0.00    +0.150 HD
ATOM      5  O   ARG A   5      11.979  66.984  16.129  0.00  0.00    -0.273 OA
BRANCH   3   6
ATOM      6  CA  SER A   6      14.062  66.424  17.876  0.00  0.00    +0.178 C 
BRANCH   6   7
ATOM      7  C   SER A   6      13.063  66.949  18.888  0.00  0.00    +0.243 C 
ATOM      8  O   SER A   6      12.303  66.185  19.477  0.00  0.00    -0.273 OA
ATOM      9  N   VAL A   7      13.084  68.262  19.092  0.00  0.00    -0.297 N 
ATOM     10  H   VAL A   7      13.770  68.847  18.573  0.00  0.00    +0.150 HD
BRANCH   9  11
ATOM     11  CA  VAL A   7      12.168  68.899  20.025  0.00  0.00    +0.149 C 
BRANCH  11  12
ATOM     12  C   VAL A   7      10.726  68.635  19.604  0.00  0.00    +0.241 C 
ATOM     13  O   VAL A   7       9.872  68.346  20.444  0.00  0.00    -0.273 OA
ATOM     14  N   GLU A   8      10.455  68.722  18.304  0.00  0.00    -0.297 N 
ATOM     15  H   GLU A   8      11.210  68.986  17.639  0.00  0.00    +0.150 HD
BRANCH  14  16
ATOM     16  CA  GLU A   8       9.109  68.451  17.798  0.00  0.00    +0.149 C 
BRANCH  16  17
ATOM     17  C   GLU A   8       8.759  67.008  18.137  0.00  0.00    +0.241 C 
ATOM     18  O   GLU A   8       7.683  66.723  18.664  0.00  0.00    -0.273 OA
ATOM     19  N   ALA A   9       9.687  66.105  17.834  0.00  0.00    -0.297 N 
ATOM     20  H   ALA A   9      10.575  66.421  17.395  0.00  0.00    +0.150 HD
BRANCH  19  21
ATOM     21  CA  ALA A   9       9.496  64.693  18.098  0.00  0.00    +0.149 C 
ATOM     22  CB  ALA A   9      10.716  63.907  17.643  0.00  0.00    +0.031 C 
BRANCH  21  23
ATOM     23  C   ALA A   9       9.211  64.442  19.578  0.00  0.00    +0.241 C 
ATOM     24  N   VAL A  10       9.973  65.071  20.469  0.00  0.00    -0.298 N 
ATOM     25  H   VAL A  10      10.741  65.696  20.150  0.00  0.00    +0.150 HD
ATOM     26  O   ALA A   9       8.300  63.683  19.912  0.00  0.00    -0.273 OA
BRANCH  24  27
ATOM     27  CA  VAL A  10       9.727  64.881  21.900  0.00  0.00    +0.137 C 
BRANCH  27  28
ATOM     28  CB  VAL A  10      10.642  65.763  22.785  0.00  0.00    +0.026 C 
ATOM     29  CG2 VAL A  10      10.181  65.693  24.231  0.00  0.00    +0.002 C 
ATOM     30  CG1 VAL A  10      12.080  65.288  22.682  0.00  0.00    +0.002 C 
ENDBRANCH  27  28
BRANCH  27  31
ATOM     31  C   VAL A  10       8.281  65.251  22.202  0.00  0.00    +0.227 C 
ATOM     32  O   VAL A  10       7.586  64.557  22.952  0.00  0.00    -0.286 OA
ENDBRANCH  27  31
ENDBRANCH  24  27
ENDBRANCH  21  23
ENDBRANCH  19  21
ENDBRANCH  16  17
BRANCH  16  33
ATOM     33  CB  GLU A   8       9.044  68.645  16.274  0.00  0.00    +0.041 C 
BRANCH  33  34
ATOM     34  CG  GLU A   8       8.999  70.097  15.820  0.00  0.00    +0.116 C 
BRANCH  34  35
ATOM     35  CD  GLU A   8       9.283  70.262  14.332  0.00  0.00    +0.365 C 
ATOM     36  OE2 GLU A   8      10.010  71.215  13.969  0.00  0.00    -0.246 OA
ATOM     37  OE1 GLU A   8       8.772  69.446  13.528  0.00  0.00    -0.246 OA
ENDBRANCH  34  35
ENDBRANCH  33  34
ENDBRANCH  16  33
ENDBRANCH  14  16
ENDBRANCH  11  12
BRANCH  11  38
ATOM     38  CB  VAL A   7      12.438  70.409  20.105  0.00  0.00    +0.027 C 
ATOM     39  CG2 VAL A   7      11.341  71.106  20.897  0.00  0.00    +0.002 C 
ATOM     40  CG1 VAL A   7      13.792  70.637  20.774  0.00  0.00    +0.002 C 
ENDBRANCH  11  38
ENDBRANCH   9  11
ENDBRANCH   6   7
BRANCH   6  41
ATOM     41  CB  SER A   6      15.432  66.297  18.547  0.00  0.00    +0.166 C 
BRANCH  41  42
ATOM     42  OG  SER A   6      16.370  65.664  17.701  0.00  0.00    -0.380 OA
ATOM     43  H   SER A   6      16.476  66.195  16.872  0.00  0.00    +0.211 HD
ENDBRANCH  41  42
ENDBRANCH   6  41
ENDBRANCH   3   6
ENDBRANCH   1   2
BRANCH   1  46
ATOM     44  C   PHE A   4      13.663  70.516  16.296  0.00  0.00    +0.241 C 
ATOM     45  O   PHE A   4      12.504  70.526  16.713  0.00  0.00    -0.273 OA
ATOM     46  N   ARG A   5      14.106  69.634  15.408  0.00  0.00    -0.297 N 
ATOM     47  H   ARG A   5      15.096  69.686  15.094  0.00  0.00    +0.150 HD
BRANCH  44  48
ATOM     48  CA  PHE A   4      14.688  71.525  16.798  0.00  0.00    +0.153 C 
BRANCH  48  51
ATOM     49  C   GLN A   3      16.655  70.169  17.246  0.00  0.00    +0.241 C 
ATOM     50  O   GLN A   3      16.112  69.623  18.205  0.00  0.00    -0.273 OA
ATOM     51  N   PHE A   4      16.050  71.094  16.508  0.00  0.00    -0.297 N 
ATOM     52  H   PHE A   4      16.559  71.519  15.707  0.00  0.00    +0.150 HD
BRANCH  49  53
ATOM     53  CA  GLN A   3      18.080  69.803  16.845  0.00  0.00    +0.149 C 
BRANCH  53  55
ATOM     54  C   CYS A   2      17.555  68.652  14.759  0.00  0.00    +0.242 C 
ATOM     55  N   GLN A   3      18.182  69.635  15.399  0.00  0.00    -0.297 N 
ATOM     56  H   GLN A   3      18.762  70.304  14.853  0.00  0.00    +0.150 HD
ATOM     57  O   CYS A   2      16.844  67.827  15.337  0.00  0.00    -0.273 OA
BRANCH  54  58
ATOM     58  CA  CYS A   2      17.744  68.598  13.237  0.00  0.00    +0.160 C 
BRANCH  58  61
ATOM     59  C   GLY A   1      17.049  70.884  12.784  0.00  0.00    +0.240 C 
ATOM     60  O   GLY A   1      15.969  70.730  13.349  0.00  0.00    -0.274 OA
ATOM     61  N   CYS A   2      17.958  69.925  12.685  0.00  0.00    -0.296 N 
ATOM     62  H   CYS A   2      18.853  70.129  12.197  0.00  0.00    +0.150 HD
BRANCH  59  63
ATOM     63  CA  GLY A   1      17.432  72.211  12.161  0.00  0.00    +0.169 C 
BRANCH  63  64
ATOM     64  N   GLY A   1      18.702  72.624  12.722  0.00  0.00    -0.236 NA
ATOM     65  H   GLY A   1      19.523  72.773  12.101  0.00  0.00    +0.142 HD
ENDBRANCH  63  64
ENDBRANCH  59  63
ENDBRANCH  58  61
BRANCH  58  66
ATOM     66  CB  CYS A   2      18.928  67.704  12.862  0.00  0.00    +0.098 C 
ATOM     67  SG  CYS A   2      19.640  66.774  14.224  0.00  0.00    -0.080 S 
ENDBRANCH  58  66
ENDBRANCH  54  58
ENDBRANCH  53  55
BRANCH  53  68
ATOM     68  CB  GLN A   3      19.044  70.896  17.327  0.00  0.00    +0.039 C 
BRANCH  68  69
ATOM     69  CG  GLN A   3      19.086  71.071  18.844  0.00  0.00    +0.087 C 
BRANCH  69  70
ATOM     70  CD  GLN A   3      20.019  72.192  19.298  0.00  0.00    +0.219 C 
ATOM     71  NE2 GLN A   3      19.464  73.167  20.012  0.00  0.00    -0.329 N 
ATOM     72 HE21 GLN A   3      20.047  73.957  20.355  0.00  0.00    +0.145 HD
ATOM     73 HE22 GLN A   3      18.447  73.140  20.227  0.00  0.00    +0.145 HD
ATOM     74  OE1 GLN A   3      21.219  72.177  19.016  0.00  0.00    -0.275 OA
ENDBRANCH  69  70
ENDBRANCH  68  69
ENDBRANCH  53  68
ENDBRANCH  49  53
ENDBRANCH  48  51
BRANCH  48  75
ATOM     75  CB  PHE A   4      14.436  72.909  16.190  0.00  0.00    +0.055 C 
BRANCH  75  76
ATOM     76  CG  PHE A   4      15.031  74.041  16.996  0.00  0.00    -0.020 A 
ATOM     77  CD2 PHE A   4      16.366  74.004  17.402  0.00  0.00    -0.004 A 
ATOM     78  CE2 PHE A   4      16.919  75.048  18.154  0.00  0.00    -0.000 A 
ATOM     79  CZ  PHE A   4      16.134  76.145  18.507  0.00  0.00    -0.000 A 
ATOM     80  CE1 PHE A   4      14.800  76.195  18.107  0.00  0.00    -0.000 A 
ATOM     81  CD1 PHE A   4      14.255  75.144  17.354  0.00  0.00    -0.004 A 
ENDBRANCH  75  76
ENDBRANCH  48  75
ENDBRANCH  44  48
ENDBRANCH   1  46
BRANCH   1  82
ATOM     82  CB  ARG A   5      13.915  67.947  13.654  0.00  0.00    +0.033 C 
BRANCH  82  83
ATOM     83  CG  ARG A   5      12.957  67.352  12.638  0.00  0.00    +0.045 C 
BRANCH  83  84
ATOM     84  CD  ARG A   5      12.121  66.220  13.213  0.00  0.00    +0.174 C 
BRANCH  84  85
ATOM     85  NE  ARG A   5      10.692  66.519  13.167  0.00  0.00    -0.265 N 
ATOM     86  CZ  ARG A   5       9.738  65.675  13.548  0.00  0.00    +0.342 C 
ATOM     87  NH2 ARG A   5      10.061  64.471  14.003  0.00  0.00    -0.292 N 
ATOM     88 HH21 ARG A   5       9.315  63.810  14.301  0.00  0.00    +0.255 HD
ATOM     89 HH22 ARG A   5      11.060  64.188  14.061  0.00  0.00    +0.255 HD
ATOM     90  NH1 ARG A   5       8.462  66.036  13.483  0.00  0.00    -0.292 N 
ATOM     91 HH11 ARG A   5       7.718  65.373  13.782  0.00  0.00    +0.255 HD
ATOM     92 HH12 ARG A   5       8.206  66.981  13.133  0.00  0.00    +0.255 HD
ATOM     93  HE  ARG A   5      10.402  67.453  12.813  0.00  0.00    +0.259 HD
ENDBRANCH  84  85
ENDBRANCH  83  84
ENDBRANCH  82  83
ENDBRANCH   1  82
TORSDOF 37
REMARK  Name = ../refined-set-2016/3adv/3adv_pocket.pdb
REMARK  146 active torsions:
REMARK  status: ('A' for Active; 'I' for Inactive)
REMARK    1  A    between atoms: _1  and  _3
REMARK    2  A    between atoms: _3  and  _4
REMARK    3  A    between atoms: _3  and  _6
REMARK    4  A    between atoms: _6  and  _7
REMARK    5  A    between atoms: _10  and  _12
REMARK    6  A    between atoms: _12  and  _13
REMARK    7  A    between atoms: _12  and  _15
REMARK    8  A    between atoms: _15  and  _16
REMARK    9  A    between atoms: _22  and  _24
REMARK   10  A    between atoms: _24  and  _25
REMARK   11  A    between atoms: _27  and  _29
REMARK   12  A    between atoms: _29  and  _30
REMARK   13  A    between atoms: _29  and  _32
REMARK   14  A    between atoms: _34  and  _36
REMARK   15  A    between atoms: _36  and  _37
REMARK   16  A    between atoms: _36  and  _39
REMARK   17  A    between atoms: _39  and  _40
REMARK   18  A    between atoms: _40  and  _41
REMARK   19  A    between atoms: _46  and  _48
REMARK   20  A    between atoms: _48  and  _49
REMARK   21  A    between atoms: _48  and  _51
REMARK   22  A    between atoms: _51  and  _52
REMARK   23  A    between atoms: _58  and  _60
REMARK   24  A    between atoms: _60  and  _61
REMARK   25  A    between atoms: _60  and  _63
REMARK   26  A    between atoms: _63  and  _64
REMARK   27  A    between atoms: _64  and  _65
REMARK   28  A    between atoms: _65  and  _66
REMARK   29  A    between atoms: _75  and  _77
REMARK   30  A    between atoms: _77  and  _78
REMARK   31  A    between atoms: _77  and  _80
REMARK   32  A    between atoms: _80  and  _81
REMARK   33  A    between atoms: _83  and  _85
REMARK   34  A    between atoms: _85  and  _86
REMARK   35  A    between atoms: _85  and  _88
REMARK   36  A    between atoms: _91  and  _93
REMARK   37  A    between atoms: _93  and  _94
REMARK   38  A    between atoms: _93  and  _96
REMARK   39  A    between atoms: _96  and  _97
REMARK   40  A    between atoms: _97  and  _98
REMARK   41  A    between atoms: _101  and  _103
REMARK   42  A    between atoms: _103  and  _104
REMARK   43  A    between atoms: _107  and  _109
REMARK   44  A    between atoms: _109  and  _110
REMARK   45  A    between atoms: _109  and  _112
REMARK   46  A    between atoms: _115  and  _117
REMARK   47  A    between atoms: _117  and  _118
REMARK   48  A    between atoms: _117  and  _120
REMARK   49  A    between atoms: _120  and  _121
REMARK   50  A    between atoms: _126  and  _128
REMARK   51  A    between atoms: _128  and  _129
REMARK   52  A    between atoms: _128  and  _131
REMARK   53  A    between atoms: _131  and  _132
REMARK   54  A    between atoms: _135  and  _137
REMARK   55  A    between atoms: _137  and  _138
REMARK   56  A    between atoms: _137  and  _140
REMARK   57  A    between atoms: _140  and  _141
REMARK   58  A    between atoms: _146  and  _147
REMARK   59  A    between atoms: _149  and  _151
REMARK   60  A    between atoms: _151  and  _152
REMARK   61  A    between atoms: _151  and  _154
REMARK   62  A    between atoms: _154  and  _155
REMARK   63  A    between atoms: _155  and  _156
REMARK   64  A    between atoms: _158  and  _160
REMARK   65  A    between atoms: _160  and  _161
REMARK   66  A    between atoms: _160  and  _163
REMARK   67  A    between atoms: _163  and  _164
REMARK   68  A    between atoms: _167  and  _169
REMARK   69  A    between atoms: _169  and  _170
REMARK   70  A    between atoms: _169  and  _172
REMARK   71  A    between atoms: _172  and  _173
REMARK   72  A    between atoms: _176  and  _178
REMARK   73  A    between atoms: _178  and  _179
REMARK   74  A    between atoms: _178  and  _181
REMARK   75  A    between atoms: _181  and  _182
REMARK   76  A    between atoms: _182  and  _183
REMARK   77  A    between atoms: _185  and  _187
REMARK   78  A    between atoms: _187  and  _188
REMARK   79  A    between atoms: _187  and  _190
REMARK   80  A    between atoms: _193  and  _195
REMARK   81  A    between atoms: _195  and  _196
REMARK   82  A    between atoms: _195  and  _198
REMARK   83  A    between atoms: _198  and  _199
REMARK   84  A    between atoms: _202  and  _204
REMARK   85  A    between atoms: _204  and  _205
REMARK   86  A    between atoms: _204  and  _207
REMARK   87  A    between atoms: _207  and  _208
REMARK   88  A    between atoms: _211  and  _213
REMARK   89  A    between atoms: _213  and  _214
REMARK   90  A    between atoms: _213  and  _216
REMARK   91  A    between atoms: _216  and  _217
REMARK   92  A    between atoms: _219  and  _221
REMARK   93  A    between atoms: _221  and  _222
REMARK   94  A    between atoms: _221  and  _224
REMARK   95  A    between atoms: _224  and  _225
REMARK   96  A    between atoms: _225  and  _226
REMARK   97  A    between atoms: _229  and  _231
REMARK   98  A    between atoms: _231  and  _232
REMARK   99  A    between atoms: _231  and  _234
REMARK  100  A    between atoms: _234  and  _235
REMARK  101  A    between atoms: _235  and  _236
REMARK  102  A    between atoms: _238  and  _240
REMARK  103  A    between atoms: _240  and  _241
REMARK  104  A    between atoms: _240  and  _243
REMARK  105  A    between atoms: _243  and  _244
REMARK  106  A    between atoms: _247  and  _249
REMARK  107  A    between atoms: _249  and  _250
REMARK  108  A    between atoms: _249  and  _252
REMARK  109  A    between atoms: _252  and  _253
REMARK  110  A    between atoms: _259  and  _261
REMARK  111  A    between atoms: _261  and  _262
REMARK  112  A    between atoms: _261  and  _264
REMARK  113  A    between atoms: _264  and  _265
REMARK  114  A    between atoms: _265  and  _266
REMARK  115  A    between atoms: _268  and  _270
REMARK  116  A    between atoms: _270  and  _271
REMARK  117  A    between atoms: _270  and  _273
REMARK  118  A    between atoms: _273  and  _274
REMARK  119  A    between atoms: _274  and  _275
REMARK  120  A    between atoms: _275  and  _276
REMARK  121  A    between atoms: _276  and  _277
REMARK  122  A    between atoms: _281  and  _283
REMARK  123  A    between atoms: _283  and  _284
REMARK  124  A    between atoms: _283  and  _286
REMARK  125  A    between atoms: _286  and  _287
REMARK  126  A    between atoms: _293  and  _295
REMARK  127  A    between atoms: _295  and  _296
REMARK  128  A    between atoms: _295  and  _298
REMARK  129  A    between atoms: _298  and  _299
REMARK  130  A    between atoms: _302  and  _304
REMARK  131  A    between atoms: _304  and  _305
REMARK  132  A    between atoms: _304  and  _307
REMARK  133  A    between atoms: _307  and  _308
REMARK  134  A    between atoms: _313  and  _315
REMARK  135  A    between atoms: _315  and  _316
REMARK  136  A    between atoms: _315  and  _318
REMARK  137  A    between atoms: _318  and  _319
REMARK  138  A    between atoms: _322  and  _324
REMARK  139  A    between atoms: _324  and  _325
REMARK  140  A    between atoms: _324  and  _327
REMARK  141  A    between atoms: _327  and  _328
REMARK  142  A    between atoms: _331  and  _333
REMARK  143  A    between atoms: _333  and  _334
REMARK  144  A    between atoms: _333  and  _336
REMARK  145  A    between atoms: _336  and  _337
REMARK  146  A    between atoms: _342  and  _343
REMARK                            x       y       z     vdW  Elec       q    Type
REMARK                         _______ _______ _______ _____ _____    ______ ____
ROOT
ATOM      1  CB  HIS A   1      17.216  60.003  22.903  0.00  0.00    +0.072 C 
ENDROOT
BRANCH   1   2
ATOM      2  CG  HIS A   1      17.397  61.484  22.892  0.00  0.00    +0.082 A 
ATOM      3  ND1 HIS A   1      16.959  62.293  23.917  0.00  0.00    -0.227 NA
ATOM      4  CE1 HIS A   1      17.156  63.558  23.592  0.00  0.00    +0.199 A 
ATOM      5  NE2 HIS A   1      17.709  63.598  22.394  0.00  0.00    -0.221 NA
ATOM      6  CD2 HIS A   1      17.874  62.315  21.936  0.00  0.00    +0.115 A 
ENDBRANCH   1   2
BRANCH   1   7
ATOM      7  CA  HIS A   1      15.841  59.571  22.411  0.00  0.00    +0.139 C 
BRANCH   7   8
ATOM      8  N   HIS A   1      14.844  59.741  23.460  0.00  0.00    -0.239 NA
ATOM      9  H   HIS A   1      15.131  59.886  24.449  0.00  0.00    +0.142 HD
ENDBRANCH   7   8
BRANCH   7  10
ATOM     10  C   HIS A   1      15.895  58.175  21.798  0.00  0.00    +0.224 C 
ATOM     11  O   HIS A   1      16.152  58.031  20.608  0.00  0.00    -0.287 OA
ENDBRANCH   7  10
ENDBRANCH   1   7
TORSDOF 4
REMARK  Name = ../refined-set-2016/3adv/3adv_pocket.pdb
REMARK  146 active torsions:
REMARK  status: ('A' for Active; 'I' for Inactive)
REMARK    1  A    between atoms: _1  and  _3
REMARK    2  A    between atoms: _3  and  _4
REMARK    3  A    between atoms: _3  and  _6
REMARK    4  A    between atoms: _6  and  _7
REMARK    5  A    between atoms: _10  and  _12
REMARK    6  A    between atoms: _12  and  _13
REMARK    7  A    between atoms: _12  and  _15
REMARK    8  A    between atoms: _15  and  _16
REMARK    9  A    between atoms: _22  and  _24
REMARK   10  A    between atoms: _24  and  _25
REMARK   11  A    between atoms: _27  and  _29
REMARK   12  A    between atoms: _29  and  _30
REMARK   13  A    between atoms: _29  and  _32
REMARK   14  A    between atoms: _34  and  _36
REMARK   15  A    between atoms: _36  and  _37
REMARK   16  A    between atoms: _36  and  _39
REMARK   17  A    between atoms: _39  and  _40
REMARK   18  A    between atoms: _40  and  _41
REMARK   19  A    between atoms: _46  and  _48
REMARK   20  A    between atoms: _48  and  _49
REMARK   21  A    between atoms: _48  and  _51
REMARK   22  A    between atoms: _51  and  _52
REMARK   23  A    between atoms: _58  and  _60
REMARK   24  A    between atoms: _60  and  _61
REMARK   25  A    between atoms: _60  and  _63
REMARK   26  A    between atoms: _63  and  _64
REMARK   27  A    between atoms: _64  and  _65
REMARK   28  A    between atoms: _65  and  _66
REMARK   29  A    between atoms: _75  and  _77
REMARK   30  A    between atoms: _77  and  _78
REMARK   31  A    between atoms: _77  and  _80
REMARK   32  A    between atoms: _80  and  _81
REMARK   33  A    between atoms: _83  and  _85
REMARK   34  A    between atoms: _85  and  _86
REMARK   35  A    between atoms: _85  and  _88
REMARK   36  A    between atoms: _91  and  _93
REMARK   37  A    between atoms: _93  and  _94
REMARK   38  A    between atoms: _93  and  _96
REMARK   39  A    between atoms: _96  and  _97
REMARK   40  A    between atoms: _97  and  _98
REMARK   41  A    between atoms: _101  and  _103
REMARK   42  A    between atoms: _103  and  _104
REMARK   43  A    between atoms: _107  and  _109
REMARK   44  A    between atoms: _109  and  _110
REMARK   45  A    between atoms: _109  and  _112
REMARK   46  A    between atoms: _115  and  _117
REMARK   47  A    between atoms: _117  and  _118
REMARK   48  A    between atoms: _117  and  _120
REMARK   49  A    between atoms: _120  and  _121
REMARK   50  A    between atoms: _126  and  _128
REMARK   51  A    between atoms: _128  and  _129
REMARK   52  A    between atoms: _128  and  _131
REMARK   53  A    between atoms: _131  and  _132
REMARK   54  A    between atoms: _135  and  _137
REMARK   55  A    between atoms: _137  and  _138
REMARK   56  A    between atoms: _137  and  _140
REMARK   57  A    between atoms: _140  and  _141
REMARK   58  A    between atoms: _146  and  _147
REMARK   59  A    between atoms: _149  and  _151
REMARK   60  A    between atoms: _151  and  _152
REMARK   61  A    between atoms: _151  and  _154
REMARK   62  A    between atoms: _154  and  _155
REMARK   63  A    between atoms: _155  and  _156
REMARK   64  A    between atoms: _158  and  _160
REMARK   65  A    between atoms: _160  and  _161
REMARK   66  A    between atoms: _160  and  _163
REMARK   67  A    between atoms: _163  and  _164
REMARK   68  A    between atoms: _167  and  _169
REMARK   69  A    between atoms: _169  and  _170
REMARK   70  A    between atoms: _169  and  _172
REMARK   71  A    between atoms: _172  and  _173
REMARK   72  A    between atoms: _176  and  _178
REMARK   73  A    between atoms: _178  and  _179
REMARK   74  A    between atoms: _178  and  _181
REMARK   75  A    between atoms: _181  and  _182
REMARK   76  A    between atoms: _182  and  _183
REMARK   77  A    between atoms: _185  and  _187
REMARK   78  A    between atoms: _187  and  _188
REMARK   79  A    between atoms: _187  and  _190
REMARK   80  A    between atoms: _193  and  _195
REMARK   81  A    between atoms: _195  and  _196
REMARK   82  A    between atoms: _195  and  _198
REMARK   83  A    between atoms: _198  and  _199
REMARK   84  A    between atoms: _202  and  _204
REMARK   85  A    between atoms: _204  and  _205
REMARK   86  A    between atoms: _204  and  _207
REMARK   87  A    between atoms: _207  and  _208
REMARK   88  A    between atoms: _211  and  _213
REMARK   89  A    between atoms: _213  and  _214
REMARK   90  A    between atoms: _213  and  _216
REMARK   91  A    between atoms: _216  and  _217
REMARK   92  A    between atoms: _219  and  _221
REMARK   93  A    between atoms: _221  and  _222
REMARK   94  A    between atoms: _221  and  _224
REMARK   95  A    between atoms: _224  and  _225
REMARK   96  A    between atoms: _225  and  _226
REMARK   97  A    between atoms: _229  and  _231
REMARK   98  A    between atoms: _231  and  _232
REMARK   99  A    between atoms: _231  and  _234
REMARK  100  A    between atoms: _234  and  _235
REMARK  101  A    between atoms: _235  and  _236
REMARK  102  A    between atoms: _238  and  _240
REMARK  103  A    between atoms: _240  and  _241
REMARK  104  A    between atoms: _240  and  _243
REMARK  105  A    between atoms: _243  and  _244
REMARK  106  A    between atoms: _247  and  _249
REMARK  107  A    between atoms: _249  and  _250
REMARK  108  A    between atoms: _249  and  _252
REMARK  109  A    between atoms: _252  and  _253
REMARK  110  A    between atoms: _259  and  _261
REMARK  111  A    between atoms: _261  and  _262
REMARK  112  A    between atoms: _261  and  _264
REMARK  113  A    between atoms: _264  and  _265
REMARK  114  A    between atoms: _265  and  _266
REMARK  115  A    between atoms: _268  and  _270
REMARK  116  A    between atoms: _270  and  _271
REMARK  117  A    between atoms: _270  and  _273
REMARK  118  A    between atoms: _273  and  _274
REMARK  119  A    between atoms: _274  and  _275
REMARK  120  A    between atoms: _275  and  _276
REMARK  121  A    between atoms: _276  and  _277
REMARK  122  A    between atoms: _281  and  _283
REMARK  123  A    between atoms: _283  and  _284
REMARK  124  A    between atoms: _283  and  _286
REMARK  125  A    between atoms: _286  and  _287
REMARK  126  A    between atoms: _293  and  _295
REMARK  127  A    between atoms: _295  and  _296
REMARK  128  A    between atoms: _295  and  _298
REMARK  129  A    between atoms: _298  and  _299
REMARK  130  A    between atoms: _302  and  _304
REMARK  131  A    between atoms: _304  and  _305
REMARK  132  A    between atoms: _304  and  _307
REMARK  133  A    between atoms: _307  and  _308
REMARK  134  A    between atoms: _313  and  _315
REMARK  135  A    between atoms: _315  and  _316
REMARK  136  A    between atoms: _315  and  _318
REMARK  137  A    between atoms: _318  and  _319
REMARK  138  A    between atoms: _322  and  _324
REMARK  139  A    between atoms: _324  and  _325
REMARK  140  A    between atoms: _324  and  _327
REMARK  141  A    between atoms: _327  and  _328
REMARK  142  A    between atoms: _331  and  _333
REMARK  143  A    between atoms: _333  and  _334
REMARK  144  A    between atoms: _333  and  _336
REMARK  145  A    between atoms: _336  and  _337
REMARK  146  A    between atoms: _342  and  _343
REMARK                            x       y       z     vdW  Elec       q    Type
REMARK                         _______ _______ _______ _____ _____    ______ ____
ROOT
ATOM      1  CA  TYR A   2      16.166  56.916  16.682  0.00  0.00    +0.141 C 
ENDROOT
BRANCH   1   3
ATOM      2  C   ILE A   1      14.330  58.410  17.168  0.00  0.00    +0.238 C 
ATOM      3  N   TYR A   2      15.312  57.641  17.626  0.00  0.00    -0.298 N 
ATOM      4  H   TYR A   2      15.474  57.554  18.650  0.00  0.00    +0.150 HD
ATOM      5  O   ILE A   1      14.094  58.519  15.967  0.00  0.00    -0.274 OA
BRANCH   2   6
ATOM      6  CA  ILE A   1      13.485  59.152  18.197  0.00  0.00    +0.145 C 
BRANCH   6   7
ATOM      7  N   ILE A   1      13.158  58.294  19.318  0.00  0.00    -0.238 NA
ATOM      8  H   ILE A   1      13.444  58.580  20.276  0.00  0.00    +0.142 HD
ENDBRANCH   6   7
BRANCH   6   9
ATOM      9  CB  ILE A   1      14.246  60.405  18.684  0.00  0.00    +0.025 C 
ATOM     10  CG2 ILE A   1      14.990  61.061  17.520  0.00  0.00    +0.002 C 
BRANCH   9  11
ATOM     11  CG1 ILE A   1      13.265  61.374  19.351  0.00  0.00    +0.002 C 
ATOM     12  CD1 ILE A   1      13.942  62.592  20.001  0.00  0.00    +0.000 C 
ENDBRANCH   9  11
ENDBRANCH   6   9
ENDBRANCH   2   6
ENDBRANCH   1   3
BRANCH   1  13
ATOM     13  C   TYR A   2      15.475  55.689  16.108  0.00  0.00    +0.227 C 
ATOM     14  O   TYR A   2      15.766  55.279  14.990  0.00  0.00    -0.286 OA
ENDBRANCH   1  13
BRANCH   1  15
ATOM     15  CB  TYR A   2      17.501  56.576  17.352  0.00  0.00    +0.054 C 
BRANCH  15  16
ATOM     16  CG  TYR A   2      18.220  57.838  17.765  0.00  0.00    -0.020 A 
ATOM     17  CD2 TYR A   2      18.850  57.941  19.006  0.00  0.00    -0.001 A 
ATOM     18  CE2 TYR A   2      19.442  59.140  19.408  0.00  0.00    +0.036 A 
ATOM     19  CZ  TYR A   2      19.406  60.241  18.557  0.00  0.00    +0.134 A 
ATOM     20  CE1 TYR A   2      18.791  60.154  17.324  0.00  0.00    +0.036 A 
ATOM     21  CD1 TYR A   2      18.208  58.963  16.934  0.00  0.00    -0.001 A 
BRANCH  19  22
ATOM     22  OH  TYR A   2      20.001  61.426  18.927  0.00  0.00    -0.506 OA
ATOM     23  HH  TYR A   2      20.394  61.328  19.830  0.00  0.00    +0.292 HD
ENDBRANCH  19  22
ENDBRANCH  15  16
ENDBRANCH   1  15
TORSDOF 9
REMARK  Name = ../refined-set-2016/3adv/3adv_pocket.pdb
REMARK  146 active torsions:
REMARK  status: ('A' for Active; 'I' for Inactive)
REMARK    1  A    between atoms: _1  and  _3
REMARK    2  A    between atoms: _3  and  _4
REMARK    3  A    between atoms: _3  and  _6
REMARK    4  A    between atoms: _6  and  _7
REMARK    5  A    between atoms: _10  and  _12
REMARK    6  A    between atoms: _12  and  _13
REMARK    7  A    between atoms: _12  and  _15
REMARK    8  A    between atoms: _15  and  _16
REMARK    9  A    between atoms: _22  and  _24
REMARK   10  A    between atoms: _24  and  _25
REMARK   11  A    between atoms: _27  and  _29
REMARK   12  A    between atoms: _29  and  _30
REMARK   13  A    between atoms: _29  and  _32
REMARK   14  A    between atoms: _34  and  _36
REMARK   15  A    between atoms: _36  and  _37
REMARK   16  A    between atoms: _36  and  _39
REMARK   17  A    between atoms: _39  and  _40
REMARK   18  A    between atoms: _40  and  _41
REMARK   19  A    between atoms: _46  and  _48
REMARK   20  A    between atoms: _48  and  _49
REMARK   21  A    between atoms: _48  and  _51
REMARK   22  A    between atoms: _51  and  _52
REMARK   23  A    between atoms: _58  and  _60
REMARK   24  A    between atoms: _60  and  _61
REMARK   25  A    between atoms: _60  and  _63
REMARK   26  A    between atoms: _63  and  _64
REMARK   27  A    between atoms: _64  and  _65
REMARK   28  A    between atoms: _65  and  _66
REMARK   29  A    between atoms: _75  and  _77
REMARK   30  A    between atoms: _77  and  _78
REMARK   31  A    between atoms: _77  and  _80
REMARK   32  A    between atoms: _80  and  _81
REMARK   33  A    between atoms: _83  and  _85
REMARK   34  A    between atoms: _85  and  _86
REMARK   35  A    between atoms: _85  and  _88
REMARK   36  A    between atoms: _91  and  _93
REMARK   37  A    between atoms: _93  and  _94
REMARK   38  A    between atoms: _93  and  _96
REMARK   39  A    between atoms: _96  and  _97
REMARK   40  A    between atoms: _97  and  _98
REMARK   41  A    between atoms: _101  and  _103
REMARK   42  A    between atoms: _103  and  _104
REMARK   43  A    between atoms: _107  and  _109
REMARK   44  A    between atoms: _109  and  _110
REMARK   45  A    between atoms: _109  and  _112
REMARK   46  A    between atoms: _115  and  _117
REMARK   47  A    between atoms: _117  and  _118
REMARK   48  A    between atoms: _117  and  _120
REMARK   49  A    between atoms: _120  and  _121
REMARK   50  A    between atoms: _126  and  _128
REMARK   51  A    between atoms: _128  and  _129
REMARK   52  A    between atoms: _128  and  _131
REMARK   53  A    between atoms: _131  and  _132
REMARK   54  A    between atoms: _135  and  _137
REMARK   55  A    between atoms: _137  and  _138
REMARK   56  A    between atoms: _137  and  _140
REMARK   57  A    between atoms: _140  and  _141
REMARK   58  A    between atoms: _146  and  _147
REMARK   59  A    between atoms: _149  and  _151
REMARK   60  A    between atoms: _151  and  _152
REMARK   61  A    between atoms: _151  and  _154
REMARK   62  A    between atoms: _154  and  _155
REMARK   63  A    between atoms: _155  and  _156
REMARK   64  A    between atoms: _158  and  _160
REMARK   65  A    between atoms: _160  and  _161
REMARK   66  A    between atoms: _160  and  _163
REMARK   67  A    between atoms: _163  and  _164
REMARK   68  A    between atoms: _167  and  _169
REMARK   69  A    between atoms: _169  and  _170
REMARK   70  A    between atoms: _169  and  _172
REMARK   71  A    between atoms: _172  and  _173
REMARK   72  A    between atoms: _176  and  _178
REMARK   73  A    between atoms: _178  and  _179
REMARK   74  A    between atoms: _178  and  _181
REMARK   75  A    between atoms: _181  and  _182
REMARK   76  A    between atoms: _182  and  _183
REMARK   77  A    between atoms: _185  and  _187
REMARK   78  A    between atoms: _187  and  _188
REMARK   79  A    between atoms: _187  and  _190
REMARK   80  A    between atoms: _193  and  _195
REMARK   81  A    between atoms: _195  and  _196
REMARK   82  A    between atoms: _195  and  _198
REMARK   83  A    between atoms: _198  and  _199
REMARK   84  A    between atoms: _202  and  _204
REMARK   85  A    between atoms: _204  and  _205
REMARK   86  A    between atoms: _204  and  _207
REMARK   87  A    between atoms: _207  and  _208
REMARK   88  A    between atoms: _211  and  _213
REMARK   89  A    between atoms: _213  and  _214
REMARK   90  A    between atoms: _213  and  _216
REMARK   91  A    between atoms: _216  and  _217
REMARK   92  A    between atoms: _219  and  _221
REMARK   93  A    between atoms: _221  and  _222
REMARK   94  A    between atoms: _221  and  _224
REMARK   95  A    between atoms: _224  and  _225
REMARK   96  A    between atoms: _225  and  _226
REMARK   97  A    between atoms: _229  and  _231
REMARK   98  A    between atoms: _231  and  _232
REMARK   99  A    between atoms: _231  and  _234
REMARK  100  A    between atoms: _234  and  _235
REMARK  101  A    between atoms: _235  and  _236
REMARK  102  A    between atoms: _238  and  _240
REMARK  103  A    between atoms: _240  and  _241
REMARK  104  A    between atoms: _240  and  _243
REMARK  105  A    between atoms: _243  and  _244
REMARK  106  A    between atoms: _247  and  _249
REMARK  107  A    between atoms: _249  and  _250
REMARK  108  A    between atoms: _249  and  _252
REMARK  109  A    between atoms: _252  and  _253
REMARK  110  A    between atoms: _259  and  _261
REMARK  111  A    between atoms: _261  and  _262
REMARK  112  A    between atoms: _261  and  _264
REMARK  113  A    between atoms: _264  and  _265
REMARK  114  A    between atoms: _265  and  _266
REMARK  115  A    between atoms: _268  and  _270
REMARK  116  A    between atoms: _270  and  _271
REMARK  117  A    between atoms: _270  and  _273
REMARK  118  A    between atoms: _273  and  _274
REMARK  119  A    between atoms: _274  and  _275
REMARK  120  A    between atoms: _275  and  _276
REMARK  121  A    between atoms: _276  and  _277
REMARK  122  A    between atoms: _281  and  _283
REMARK  123  A    between atoms: _283  and  _284
REMARK  124  A    between atoms: _283  and  _286
REMARK  125  A    between atoms: _286  and  _287
REMARK  126  A    between atoms: _293  and  _295
REMARK  127  A    between atoms: _295  and  _296
REMARK  128  A    between atoms: _295  and  _298
REMARK  129  A    between atoms: _298  and  _299
REMARK  130  A    between atoms: _302  and  _304
REMARK  131  A    between atoms: _304  and  _305
REMARK  132  A    between atoms: _304  and  _307
REMARK  133  A    between atoms: _307  and  _308
REMARK  134  A    between atoms: _313  and  _315
REMARK  135  A    between atoms: _315  and  _316
REMARK  136  A    between atoms: _315  and  _318
REMARK  137  A    between atoms: _318  and  _319
REMARK  138  A    between atoms: _322  and  _324
REMARK  139  A    between atoms: _324  and  _325
REMARK  140  A    between atoms: _324  and  _327
REMARK  141  A    between atoms: _327  and  _328
REMARK  142  A    between atoms: _331  and  _333
REMARK  143  A    between atoms: _333  and  _334
REMARK  144  A    between atoms: _333  and  _336
REMARK  145  A    between atoms: _336  and  _337
REMARK  146  A    between atoms: _342  and  _343
REMARK                            x       y       z     vdW  Elec       q    Type
REMARK                         _______ _______ _______ _____ _____    ______ ____
ROOT
ATOM      1  C   MET A   1      12.033  56.655  13.153  0.00  0.00    +0.238 C 
ATOM      2  N   LEU A   2      13.142  57.314  13.464  0.00  0.00    -0.298 N 
ATOM      3  H   LEU A   2      13.437  57.373  14.460  0.00  0.00    +0.150 HD
ATOM      4  O   MET A   1      11.613  56.562  11.993  0.00  0.00    -0.274 OA
ENDROOT
BRANCH   1   5
ATOM      5  CA  MET A   1      11.286  55.991  14.319  0.00  0.00    +0.146 C 
BRANCH   5   6
ATOM      6  N   MET A   1      12.170  55.481  15.361  0.00  0.00    -0.238 NA
ATOM      7  H   MET A   1      12.216  55.979  16.273  0.00  0.00    +0.142 HD
ENDBRANCH   5   6
BRANCH   5   8
ATOM      8  CB  MET A   1      10.280  56.952  14.950  0.00  0.00    +0.038 C 
BRANCH   8   9
ATOM      9  CG  MET A   1       9.302  56.246  15.878  0.00  0.00    +0.060 C 
BRANCH   9  10
ATOM     10  SD  MET A   1       8.097  57.348  16.625  0.00  0.00    -0.139 S 
ATOM     11  CE  MET A   1       6.905  57.514  15.271  0.00  0.00    +0.069 C 
ENDBRANCH   9  10
ENDBRANCH   8   9
ENDBRANCH   5   8
ENDBRANCH   1   5
BRANCH   2  12
ATOM     12  CA  LEU A   2      13.954  57.956  12.441  0.00  0.00    +0.137 C 
BRANCH  12  13
ATOM     13  C   LEU A   2      14.384  56.907  11.404  0.00  0.00    +0.227 C 
ATOM     14  O   LEU A   2      14.600  57.224  10.232  0.00  0.00    -0.286 OA
ENDBRANCH  12  13
BRANCH  12  15
ATOM     15  CB  LEU A   2      15.195  58.599  13.079  0.00  0.00    +0.028 C 
BRANCH  15  16
ATOM     16  CG  LEU A   2      16.173  59.225  12.083  0.00  0.00    +0.002 C 
ATOM     17  CD2 LEU A   2      17.498  59.519  12.772  0.00  0.00    +0.000 C 
ATOM     18  CD1 LEU A   2      15.565  60.498  11.517  0.00  0.00    +0.000 C 
ENDBRANCH  15  16
ENDBRANCH  12  15
ENDBRANCH   2  12
TORSDOF 9
REMARK  Name = ../refined-set-2016/3adv/3adv_pocket.pdb
REMARK  146 active torsions:
REMARK  status: ('A' for Active; 'I' for Inactive)
REMARK    1  A    between atoms: _1  and  _3
REMARK    2  A    between atoms: _3  and  _4
REMARK    3  A    between atoms: _3  and  _6
REMARK    4  A    between atoms: _6  and  _7
REMARK    5  A    between atoms: _10  and  _12
REMARK    6  A    between atoms: _12  and  _13
REMARK    7  A    between atoms: _12  and  _15
REMARK    8  A    between atoms: _15  and  _16
REMARK    9  A    between atoms: _22  and  _24
REMARK   10  A    between atoms: _24  and  _25
REMARK   11  A    between atoms: _27  and  _29
REMARK   12  A    between atoms: _29  and  _30
REMARK   13  A    between atoms: _29  and  _32
REMARK   14  A    between atoms: _34  and  _36
REMARK   15  A    between atoms: _36  and  _37
REMARK   16  A    between atoms: _36  and  _39
REMARK   17  A    between atoms: _39  and  _40
REMARK   18  A    between atoms: _40  and  _41
REMARK   19  A    between atoms: _46  and  _48
REMARK   20  A    between atoms: _48  and  _49
REMARK   21  A    between atoms: _48  and  _51
REMARK   22  A    between atoms: _51  and  _52
REMARK   23  A    between atoms: _58  and  _60
REMARK   24  A    between atoms: _60  and  _61
REMARK   25  A    between atoms: _60  and  _63
REMARK   26  A    between atoms: _63  and  _64
REMARK   27  A    between atoms: _64  and  _65
REMARK   28  A    between atoms: _65  and  _66
REMARK   29  A    between atoms: _75  and  _77
REMARK   30  A    between atoms: _77  and  _78
REMARK   31  A    between atoms: _77  and  _80
REMARK   32  A    between atoms: _80  and  _81
REMARK   33  A    between atoms: _83  and  _85
REMARK   34  A    between atoms: _85  and  _86
REMARK   35  A    between atoms: _85  and  _88
REMARK   36  A    between atoms: _91  and  _93
REMARK   37  A    between atoms: _93  and  _94
REMARK   38  A    between atoms: _93  and  _96
REMARK   39  A    between atoms: _96  and  _97
REMARK   40  A    between atoms: _97  and  _98
REMARK   41  A    between atoms: _101  and  _103
REMARK   42  A    between atoms: _103  and  _104
REMARK   43  A    between atoms: _107  and  _109
REMARK   44  A    between atoms: _109  and  _110
REMARK   45  A    between atoms: _109  and  _112
REMARK   46  A    between atoms: _115  and  _117
REMARK   47  A    between atoms: _117  and  _118
REMARK   48  A    between atoms: _117  and  _120
REMARK   49  A    between atoms: _120  and  _121
REMARK   50  A    between atoms: _126  and  _128
REMARK   51  A    between atoms: _128  and  _129
REMARK   52  A    between atoms: _128  and  _131
REMARK   53  A    between atoms: _131  and  _132
REMARK   54  A    between atoms: _135  and  _137
REMARK   55  A    between atoms: _137  and  _138
REMARK   56  A    between atoms: _137  and  _140
REMARK   57  A    between atoms: _140  and  _141
REMARK   58  A    between atoms: _146  and  _147
REMARK   59  A    between atoms: _149  and  _151
REMARK   60  A    between atoms: _151  and  _152
REMARK   61  A    between atoms: _151  and  _154
REMARK   62  A    between atoms: _154  and  _155
REMARK   63  A    between atoms: _155  and  _156
REMARK   64  A    between atoms: _158  and  _160
REMARK   65  A    between atoms: _160  and  _161
REMARK   66  A    between atoms: _160  and  _163
REMARK   67  A    between atoms: _163  and  _164
REMARK   68  A    between atoms: _167  and  _169
REMARK   69  A    between atoms: _169  and  _170
REMARK   70  A    between atoms: _169  and  _172
REMARK   71  A    between atoms: _172  and  _173
REMARK   72  A    between atoms: _176  and  _178
REMARK   73  A    between atoms: _178  and  _179
REMARK   74  A    between atoms: _178  and  _181
REMARK   75  A    between atoms: _181  and  _182
REMARK   76  A    between atoms: _182  and  _183
REMARK   77  A    between atoms: _185  and  _187
REMARK   78  A    between atoms: _187  and  _188
REMARK   79  A    between atoms: _187  and  _190
REMARK   80  A    between atoms: _193  and  _195
REMARK   81  A    between atoms: _195  and  _196
REMARK   82  A    between atoms: _195  and  _198
REMARK   83  A    between atoms: _198  and  _199
REMARK   84  A    between atoms: _202  and  _204
REMARK   85  A    between atoms: _204  and  _205
REMARK   86  A    between atoms: _204  and  _207
REMARK   87  A    between atoms: _207  and  _208
REMARK   88  A    between atoms: _211  and  _213
REMARK   89  A    between atoms: _213  and  _214
REMARK   90  A    between atoms: _213  and  _216
REMARK   91  A    between atoms: _216  and  _217
REMARK   92  A    between atoms: _219  and  _221
REMARK   93  A    between atoms: _221  and  _222
REMARK   94  A    between atoms: _221  and  _224
REMARK   95  A    between atoms: _224  and  _225
REMARK   96  A    between atoms: _225  and  _226
REMARK   97  A    between atoms: _229  and  _231
REMARK   98  A    between atoms: _231  and  _232
REMARK   99  A    between atoms: _231  and  _234
REMARK  100  A    between atoms: _234  and  _235
REMARK  101  A    between atoms: _235  and  _236
REMARK  102  A    between atoms: _238  and  _240
REMARK  103  A    between atoms: _240  and  _241
REMARK  104  A    between atoms: _240  and  _243
REMARK  105  A    between atoms: _243  and  _244
REMARK  106  A    between atoms: _247  and  _249
REMARK  107  A    between atoms: _249  and  _250
REMARK  108  A    between atoms: _249  and  _252
REMARK  109  A    between atoms: _252  and  _253
REMARK  110  A    between atoms: _259  and  _261
REMARK  111  A    between atoms: _261  and  _262
REMARK  112  A    between atoms: _261  and  _264
REMARK  113  A    between atoms: _264  and  _265
REMARK  114  A    between atoms: _265  and  _266
REMARK  115  A    between atoms: _268  and  _270
REMARK  116  A    between atoms: _270  and  _271
REMARK  117  A    between atoms: _270  and  _273
REMARK  118  A    between atoms: _273  and  _274
REMARK  119  A    between atoms: _274  and  _275
REMARK  120  A    between atoms: _275  and  _276
REMARK  121  A    between atoms: _276  and  _277
REMARK  122  A    between atoms: _281  and  _283
REMARK  123  A    between atoms: _283  and  _284
REMARK  124  A    between atoms: _283  and  _286
REMARK  125  A    between atoms: _286  and  _287
REMARK  126  A    between atoms: _293  and  _295
REMARK  127  A    between atoms: _295  and  _296
REMARK  128  A    between atoms: _295  and  _298
REMARK  129  A    between atoms: _298  and  _299
REMARK  130  A    between atoms: _302  and  _304
REMARK  131  A    between atoms: _304  and  _305
REMARK  132  A    between atoms: _304  and  _307
REMARK  133  A    between atoms: _307  and  _308
REMARK  134  A    between atoms: _313  and  _315
REMARK  135  A    between atoms: _315  and  _316
REMARK  136  A    between atoms: _315  and  _318
REMARK  137  A    between atoms: _318  and  _319
REMARK  138  A    between atoms: _322  and  _324
REMARK  139  A    between atoms: _324  and  _325
REMARK  140  A    between atoms: _324  and  _327
REMARK  141  A    between atoms: _327  and  _328
REMARK  142  A    between atoms: _331  and  _333
REMARK  143  A    between atoms: _333  and  _334
REMARK  144  A    between atoms: _333  and  _336
REMARK  145  A    between atoms: _336  and  _337
REMARK  146  A    between atoms: _342  and  _343
REMARK                            x       y       z     vdW  Elec       q    Type
REMARK                         _______ _______ _______ _____ _____    ______ ____
ROOT
ATOM      1  C   LEU A   1      13.971  57.576   6.613  0.00  0.00    +0.238 C 
ATOM      2  N   MET A   2      14.666  56.466   6.865  0.00  0.00    -0.298 N 
ATOM      3  H   MET A   2      14.272  55.753   7.511  0.00  0.00    +0.150 HD
ATOM      4  O   LEU A   1      14.360  58.444   5.821  0.00  0.00    -0.274 OA
ENDROOT
BRANCH   1   5
ATOM      5  CA  LEU A   1      12.631  57.743   7.338  0.00  0.00    +0.145 C 
BRANCH   5   6
ATOM      6  N   LEU A   1      12.393  56.739   8.364  0.00  0.00    -0.238 NA
ATOM      7  H   LEU A   1      12.783  56.883   9.317  0.00  0.00    +0.142 HD
ENDBRANCH   5   6
BRANCH   5   8
ATOM      8  CB  LEU A   1      12.573  59.144   7.962  0.00  0.00    +0.026 C 
BRANCH   8   9
ATOM      9  CG  LEU A   1      11.577  59.435   9.090  0.00  0.00    +0.002 C 
ATOM     10  CD2 LEU A   1      11.455  60.947   9.276  0.00  0.00    +0.000 C 
ATOM     11  CD1 LEU A   1      10.220  58.842   8.768  0.00  0.00    +0.000 C 
ENDBRANCH   8   9
ENDBRANCH   5   8
ENDBRANCH   1   5
BRANCH   2  12
ATOM     12  CA  MET A   2      15.974  56.232   6.249  0.00  0.00    +0.138 C 
BRANCH  12  13
ATOM     13  C   MET A   2      16.101  54.976   5.386  0.00  0.00    +0.227 C 
ATOM     14  O   MET A   2      15.341  54.022   5.514  0.00  0.00    -0.286 OA
ENDBRANCH  12  13
BRANCH  12  15
ATOM     15  CB  MET A   2      17.059  56.112   7.336  0.00  0.00    +0.039 C 
BRANCH  15  16
ATOM     16  CG  MET A   2      17.171  57.262   8.323  0.00  0.00    +0.060 C 
BRANCH  16  17
ATOM     17  SD  MET A   2      18.432  56.924   9.596  0.00  0.00    -0.139 S 
ATOM     18  CE  MET A   2      19.418  58.390   9.520  0.00  0.00    +0.069 C 
ENDBRANCH  16  17
ENDBRANCH  15  16
ENDBRANCH  12  15
ENDBRANCH   2  12
TORSDOF 9
REMARK  Name = ../refined-set-2016/3adv/3adv_pocket.pdb
REMARK  146 active torsions:
REMARK  status: ('A' for Active; 'I' for Inactive)
REMARK    1  A    between atoms: _1  and  _3
REMARK    2  A    between atoms: _3  and  _4
REMARK    3  A    between atoms: _3  and  _6
REMARK    4  A    between atoms: _6  and  _7
REMARK    5  A    between atoms: _10  and  _12
REMARK    6  A    between atoms: _12  and  _13
REMARK    7  A    between atoms: _12  and  _15
REMARK    8  A    between atoms: _15  and  _16
REMARK    9  A    between atoms: _22  and  _24
REMARK   10  A    between atoms: _24  and  _25
REMARK   11  A    between atoms: _27  and  _29
REMARK   12  A    between atoms: _29  and  _30
REMARK   13  A    between atoms: _29  and  _32
REMARK   14  A    between atoms: _34  and  _36
REMARK   15  A    between atoms: _36  and  _37
REMARK   16  A    between atoms: _36  and  _39
REMARK   17  A    between atoms: _39  and  _40
REMARK   18  A    between atoms: _40  and  _41
REMARK   19  A    between atoms: _46  and  _48
REMARK   20  A    between atoms: _48  and  _49
REMARK   21  A    between atoms: _48  and  _51
REMARK   22  A    between atoms: _51  and  _52
REMARK   23  A    between atoms: _58  and  _60
REMARK   24  A    between atoms: _60  and  _61
REMARK   25  A    between atoms: _60  and  _63
REMARK   26  A    between atoms: _63  and  _64
REMARK   27  A    between atoms: _64  and  _65
REMARK   28  A    between atoms: _65  and  _66
REMARK   29  A    between atoms: _75  and  _77
REMARK   30  A    between atoms: _77  and  _78
REMARK   31  A    between atoms: _77  and  _80
REMARK   32  A    between atoms: _80  and  _81
REMARK   33  A    between atoms: _83  and  _85
REMARK   34  A    between atoms: _85  and  _86
REMARK   35  A    between atoms: _85  and  _88
REMARK   36  A    between atoms: _91  and  _93
REMARK   37  A    between atoms: _93  and  _94
REMARK   38  A    between atoms: _93  and  _96
REMARK   39  A    between atoms: _96  and  _97
REMARK   40  A    between atoms: _97  and  _98
REMARK   41  A    between atoms: _101  and  _103
REMARK   42  A    between atoms: _103  and  _104
REMARK   43  A    between atoms: _107  and  _109
REMARK   44  A    between atoms: _109  and  _110
REMARK   45  A    between atoms: _109  and  _112
REMARK   46  A    between atoms: _115  and  _117
REMARK   47  A    between atoms: _117  and  _118
REMARK   48  A    between atoms: _117  and  _120
REMARK   49  A    between atoms: _120  and  _121
REMARK   50  A    between atoms: _126  and  _128
REMARK   51  A    between atoms: _128  and  _129
REMARK   52  A    between atoms: _128  and  _131
REMARK   53  A    between atoms: _131  and  _132
REMARK   54  A    between atoms: _135  and  _137
REMARK   55  A    between atoms: _137  and  _138
REMARK   56  A    between atoms: _137  and  _140
REMARK   57  A    between atoms: _140  and  _141
REMARK   58  A    between atoms: _146  and  _147
REMARK   59  A    between atoms: _149  and  _151
REMARK   60  A    between atoms: _151  and  _152
REMARK   61  A    between atoms: _151  and  _154
REMARK   62  A    between atoms: _154  and  _155
REMARK   63  A    between atoms: _155  and  _156
REMARK   64  A    between atoms: _158  and  _160
REMARK   65  A    between atoms: _160  and  _161
REMARK   66  A    between atoms: _160  and  _163
REMARK   67  A    between atoms: _163  and  _164
REMARK   68  A    between atoms: _167  and  _169
REMARK   69  A    between atoms: _169  and  _170
REMARK   70  A    between atoms: _169  and  _172
REMARK   71  A    between atoms: _172  and  _173
REMARK   72  A    between atoms: _176  and  _178
REMARK   73  A    between atoms: _178  and  _179
REMARK   74  A    between atoms: _178  and  _181
REMARK   75  A    between atoms: _181  and  _182
REMARK   76  A    between atoms: _182  and  _183
REMARK   77  A    between atoms: _185  and  _187
REMARK   78  A    between atoms: _187  and  _188
REMARK   79  A    between atoms: _187  and  _190
REMARK   80  A    between atoms: _193  and  _195
REMARK   81  A    between atoms: _195  and  _196
REMARK   82  A    between atoms: _195  and  _198
REMARK   83  A    between atoms: _198  and  _199
REMARK   84  A    between atoms: _202  and  _204
REMARK   85  A    between atoms: _204  and  _205
REMARK   86  A    between atoms: _204  and  _207
REMARK   87  A    between atoms: _207  and  _208
REMARK   88  A    between atoms: _211  and  _213
REMARK   89  A    between atoms: _213  and  _214
REMARK   90  A    between atoms: _213  and  _216
REMARK   91  A    between atoms: _216  and  _217
REMARK   92  A    between atoms: _219  and  _221
REMARK   93  A    between atoms: _221  and  _222
REMARK   94  A    between atoms: _221  and  _224
REMARK   95  A    between atoms: _224  and  _225
REMARK   96  A    between atoms: _225  and  _226
REMARK   97  A    between atoms: _229  and  _231
REMARK   98  A    between atoms: _231  and  _232
REMARK   99  A    between atoms: _231  and  _234
REMARK  100  A    between atoms: _234  and  _235
REMARK  101  A    between atoms: _235  and  _236
REMARK  102  A    between atoms: _238  and  _240
REMARK  103  A    between atoms: _240  and  _241
REMARK  104  A    between atoms: _240  and  _243
REMARK  105  A    between atoms: _243  and  _244
REMARK  106  A    between atoms: _247  and  _249
REMARK  107  A    between atoms: _249  and  _250
REMARK  108  A    between atoms: _249  and  _252
REMARK  109  A    between atoms: _252  and  _253
REMARK  110  A    between atoms: _259  and  _261
REMARK  111  A    between atoms: _261  and  _262
REMARK  112  A    between atoms: _261  and  _264
REMARK  113  A    between atoms: _264  and  _265
REMARK  114  A    between atoms: _265  and  _266
REMARK  115  A    between atoms: _268  and  _270
REMARK  116  A    between atoms: _270  and  _271
REMARK  117  A    between atoms: _270  and  _273
REMARK  118  A    between atoms: _273  and  _274
REMARK  119  A    between atoms: _274  and  _275
REMARK  120  A    between atoms: _275  and  _276
REMARK  121  A    between atoms: _276  and  _277
REMARK  122  A    between atoms: _281  and  _283
REMARK  123  A    between atoms: _283  and  _284
REMARK  124  A    between atoms: _283  and  _286
REMARK  125  A    between atoms: _286  and  _287
REMARK  126  A    between atoms: _293  and  _295
REMARK  127  A    between atoms: _295  and  _296
REMARK  128  A    between atoms: _295  and  _298
REMARK  129  A    between atoms: _298  and  _299
REMARK  130  A    between atoms: _302  and  _304
REMARK  131  A    between atoms: _304  and  _305
REMARK  132  A    between atoms: _304  and  _307
REMARK  133  A    between atoms: _307  and  _308
REMARK  134  A    between atoms: _313  and  _315
REMARK  135  A    between atoms: _315  and  _316
REMARK  136  A    between atoms: _315  and  _318
REMARK  137  A    between atoms: _318  and  _319
REMARK  138  A    between atoms: _322  and  _324
REMARK  139  A    between atoms: _324  and  _325
REMARK  140  A    between atoms: _324  and  _327
REMARK  141  A    between atoms: _327  and  _328
REMARK  142  A    between atoms: _331  and  _333
REMARK  143  A    between atoms: _333  and  _334
REMARK  144  A    between atoms: _333  and  _336
REMARK  145  A    between atoms: _336  and  _337
REMARK  146  A    between atoms: _342  and  _343
REMARK                            x       y       z     vdW  Elec       q    Type
REMARK                         _______ _______ _______ _____ _____    ______ ____
ROOT
ATOM      1  CA  ILE A   3      13.372  65.605   6.095  0.00  0.00    +0.149 C 
ENDROOT
BRANCH   1   4
ATOM      2  C   LEU A   2      13.754  63.245   5.665  0.00  0.00    +0.241 C 
ATOM      3  O   LEU A   2      14.155  63.048   6.818  0.00  0.00    -0.273 OA
ATOM      4  N   ILE A   3      13.372  64.438   5.224  0.00  0.00    -0.297 N 
ATOM      5  H   ILE A   3      13.066  64.541   4.235  0.00  0.00    +0.150 HD
BRANCH   2   6
ATOM      6  CA  LEU A   2      13.688  62.104   4.662  0.00  0.00    +0.149 C 
BRANCH   6   8
ATOM      7  C   VAL A   1      16.014  61.494   4.849  0.00  0.00    +0.238 C 
ATOM      8  N   LEU A   2      14.738  61.166   4.993  0.00  0.00    -0.297 N 
ATOM      9  H   LEU A   2      14.488  60.221   5.349  0.00  0.00    +0.150 HD
ATOM     10  O   VAL A   1      16.381  62.585   4.402  0.00  0.00    -0.274 OA
BRANCH   7  11
ATOM     11  CA  VAL A   1      17.021  60.426   5.270  0.00  0.00    +0.145 C 
BRANCH  11  12
ATOM     12  CB  VAL A   1      17.556  60.760   6.679  0.00  0.00    +0.025 C 
ATOM     13  CG2 VAL A   1      16.422  60.810   7.679  0.00  0.00    +0.002 C 
ATOM     14  CG1 VAL A   1      18.312  62.091   6.648  0.00  0.00    +0.002 C 
ENDBRANCH  11  12
BRANCH  11  15
ATOM     15  N   VAL A   1      18.126  60.293   4.343  0.00  0.00    -0.238 NA
ATOM     16  H   VAL A   1      18.572  61.149   3.956  0.00  0.00    +0.142 HD
ENDBRANCH  11  15
ENDBRANCH   7  11
ENDBRANCH   6   8
BRANCH   6  17
ATOM     17  CB  LEU A   2      12.317  61.427   4.746  0.00  0.00    +0.029 C 
BRANCH  17  18
ATOM     18  CG  LEU A   2      11.917  60.580   3.540  0.00  0.00    +0.002 C 
ATOM     19  CD2 LEU A   2      10.548  59.964   3.791  0.00  0.00    +0.000 C 
ATOM     20  CD1 LEU A   2      11.893  61.447   2.289  0.00  0.00    +0.000 C 
ENDBRANCH  17  18
ENDBRANCH   6  17
ENDBRANCH   2   6
ENDBRANCH   1   4
BRANCH   1  21
ATOM     21  C   ILE A   3      12.170  66.479   5.790  0.00  0.00    +0.241 C 
ATOM     22  N   SER A   4      11.931  67.453   6.659  0.00  0.00    -0.295 N 
ATOM     23  H   SER A   4      12.553  67.555   7.486  0.00  0.00    +0.150 HD
ATOM     24  O   ILE A   3      11.471  66.269   4.796  0.00  0.00    -0.273 OA
BRANCH  22  25
ATOM     25  CA  SER A   4      10.824  68.382   6.489  0.00  0.00    +0.178 C 
BRANCH  25  26
ATOM     26  C   SER A   4       9.554  67.641   6.068  0.00  0.00    +0.243 C 
ATOM     27  N   GLU A   5       9.073  66.773   6.952  0.00  0.00    -0.298 N 
ATOM     28  H   GLU A   5       9.580  66.640   7.850  0.00  0.00    +0.150 HD
ATOM     29  O   SER A   4       9.037  67.840   4.966  0.00  0.00    -0.273 OA
BRANCH  27  30
ATOM     30  CA  GLU A   5       7.860  66.000   6.709  0.00  0.00    +0.137 C 
BRANCH  30  31
ATOM     31  C   GLU A   5       7.878  65.138   5.439  0.00  0.00    +0.227 C 
ATOM     32  O   GLU A   5       6.824  64.767   4.929  0.00  0.00    -0.286 OA
ENDBRANCH  30  31
BRANCH  30  33
ATOM     33  CB  GLU A   5       6.660  66.944   6.645  0.00  0.00    +0.039 C 
BRANCH  33  34
ATOM     34  CG  GLU A   5       6.373  67.706   7.929  0.00  0.00    +0.116 C 
BRANCH  34  35
ATOM     35  CD  GLU A   5       5.375  66.988   8.822  0.00  0.00    +0.365 C 
ATOM     36  OE2 GLU A   5       4.945  67.585   9.834  0.00  0.00    -0.246 OA
ATOM     37  OE1 GLU A   5       5.019  65.826   8.510  0.00  0.00    -0.246 OA
ENDBRANCH  34  35
ENDBRANCH  33  34
ENDBRANCH  30  33
ENDBRANCH  27  30
ENDBRANCH  25  26
BRANCH  25  38
ATOM     38  CB  SER A   4      11.204  69.436   5.442  0.00  0.00    +0.166 C 
BRANCH  38  39
ATOM     39  OG  SER A   4      10.203  70.427   5.306  0.00  0.00    -0.380 OA
ATOM     40  H   SER A   4       9.355  70.001   5.025  0.00  0.00    +0.211 HD
ENDBRANCH  38  39
ENDBRANCH  25  38
ENDBRANCH  22  25
ENDBRANCH   1  21
BRANCH   1  41
ATOM     41  CB  ILE A   3      14.646  66.465   5.919  0.00  0.00    +0.027 C 
ATOM     42  CG2 ILE A   3      15.875  65.645   6.267  0.00  0.00    +0.002 C 
BRANCH  41  43
ATOM     43  CG1 ILE A   3      14.719  67.009   4.487  0.00  0.00    +0.002 C 
ATOM     44  CD1 ILE A   3      15.854  67.990   4.257  0.00  0.00    +0.000 C 
ENDBRANCH  41  43
ENDBRANCH   1  41
TORSDOF 20
REMARK  Name = ../refined-set-2016/3adv/3adv_pocket.pdb
REMARK  146 active torsions:
REMARK  status: ('A' for Active; 'I' for Inactive)
REMARK    1  A    between atoms: _1  and  _3
REMARK    2  A    between atoms: _3  and  _4
REMARK    3  A    between atoms: _3  and  _6
REMARK    4  A    between atoms: _6  and  _7
REMARK    5  A    between atoms: _10  and  _12
REMARK    6  A    between atoms: _12  and  _13
REMARK    7  A    between atoms: _12  and  _15
REMARK    8  A    between atoms: _15  and  _16
REMARK    9  A    between atoms: _22  and  _24
REMARK   10  A    between atoms: _24  and  _25
REMARK   11  A    between atoms: _27  and  _29
REMARK   12  A    between atoms: _29  and  _30
REMARK   13  A    between atoms: _29  and  _32
REMARK   14  A    between atoms: _34  and  _36
REMARK   15  A    between atoms: _36  and  _37
REMARK   16  A    between atoms: _36  and  _39
REMARK   17  A    between atoms: _39  and  _40
REMARK   18  A    between atoms: _40  and  _41
REMARK   19  A    between atoms: _46  and  _48
REMARK   20  A    between atoms: _48  and  _49
REMARK   21  A    between atoms: _48  and  _51
REMARK   22  A    between atoms: _51  and  _52
REMARK   23  A    between atoms: _58  and  _60
REMARK   24  A    between atoms: _60  and  _61
REMARK   25  A    between atoms: _60  and  _63
REMARK   26  A    between atoms: _63  and  _64
REMARK   27  A    between atoms: _64  and  _65
REMARK   28  A    between atoms: _65  and  _66
REMARK   29  A    between atoms: _75  and  _77
REMARK   30  A    between atoms: _77  and  _78
REMARK   31  A    between atoms: _77  and  _80
REMARK   32  A    between atoms: _80  and  _81
REMARK   33  A    between atoms: _83  and  _85
REMARK   34  A    between atoms: _85  and  _86
REMARK   35  A    between atoms: _85  and  _88
REMARK   36  A    between atoms: _91  and  _93
REMARK   37  A    between atoms: _93  and  _94
REMARK   38  A    between atoms: _93  and  _96
REMARK   39  A    between atoms: _96  and  _97
REMARK   40  A    between atoms: _97  and  _98
REMARK   41  A    between atoms: _101  and  _103
REMARK   42  A    between atoms: _103  and  _104
REMARK   43  A    between atoms: _107  and  _109
REMARK   44  A    between atoms: _109  and  _110
REMARK   45  A    between atoms: _109  and  _112
REMARK   46  A    between atoms: _115  and  _117
REMARK   47  A    between atoms: _117  and  _118
REMARK   48  A    between atoms: _117  and  _120
REMARK   49  A    between atoms: _120  and  _121
REMARK   50  A    between atoms: _126  and  _128
REMARK   51  A    between atoms: _128  and  _129
REMARK   52  A    between atoms: _128  and  _131
REMARK   53  A    between atoms: _131  and  _132
REMARK   54  A    between atoms: _135  and  _137
REMARK   55  A    between atoms: _137  and  _138
REMARK   56  A    between atoms: _137  and  _140
REMARK   57  A    between atoms: _140  and  _141
REMARK   58  A    between atoms: _146  and  _147
REMARK   59  A    between atoms: _149  and  _151
REMARK   60  A    between atoms: _151  and  _152
REMARK   61  A    between atoms: _151  and  _154
REMARK   62  A    between atoms: _154  and  _155
REMARK   63  A    between atoms: _155  and  _156
REMARK   64  A    between atoms: _158  and  _160
REMARK   65  A    between atoms: _160  and  _161
REMARK   66  A    between atoms: _160  and  _163
REMARK   67  A    between atoms: _163  and  _164
REMARK   68  A    between atoms: _167  and  _169
REMARK   69  A    between atoms: _169  and  _170
REMARK   70  A    between atoms: _169  and  _172
REMARK   71  A    between atoms: _172  and  _173
REMARK   72  A    between atoms: _176  and  _178
REMARK   73  A    between atoms: _178  and  _179
REMARK   74  A    between atoms: _178  and  _181
REMARK   75  A    between atoms: _181  and  _182
REMARK   76  A    between atoms: _182  and  _183
REMARK   77  A    between atoms: _185  and  _187
REMARK   78  A    between atoms: _187  and  _188
REMARK   79  A    between atoms: _187  and  _190
REMARK   80  A    between atoms: _193  and  _195
REMARK   81  A    between atoms: _195  and  _196
REMARK   82  A    between atoms: _195  and  _198
REMARK   83  A    between atoms: _198  and  _199
REMARK   84  A    between atoms: _202  and  _204
REMARK   85  A    between atoms: _204  and  _205
REMARK   86  A    between atoms: _204  and  _207
REMARK   87  A    between atoms: _207  and  _208
REMARK   88  A    between atoms: _211  and  _213
REMARK   89  A    between atoms: _213  and  _214
REMARK   90  A    between atoms: _213  and  _216
REMARK   91  A    between atoms: _216  and  _217
REMARK   92  A    between atoms: _219  and  _221
REMARK   93  A    between atoms: _221  and  _222
REMARK   94  A    between atoms: _221  and  _224
REMARK   95  A    between atoms: _224  and  _225
REMARK   96  A    between atoms: _225  and  _226
REMARK   97  A    between atoms: _229  and  _231
REMARK   98  A    between atoms: _231  and  _232
REMARK   99  A    between atoms: _231  and  _234
REMARK  100  A    between atoms: _234  and  _235
REMARK  101  A    between atoms: _235  and  _236
REMARK  102  A    between atoms: _238  and  _240
REMARK  103  A    between atoms: _240  and  _241
REMARK  104  A    between atoms: _240  and  _243
REMARK  105  A    between atoms: _243  and  _244
REMARK  106  A    between atoms: _247  and  _249
REMARK  107  A    between atoms: _249  and  _250
REMARK  108  A    between atoms: _249  and  _252
REMARK  109  A    between atoms: _252  and  _253
REMARK  110  A    between atoms: _259  and  _261
REMARK  111  A    between atoms: _261  and  _262
REMARK  112  A    between atoms: _261  and  _264
REMARK  113  A    between atoms: _264  and  _265
REMARK  114  A    between atoms: _265  and  _266
REMARK  115  A    between atoms: _268  and  _270
REMARK  116  A    between atoms: _270  and  _271
REMARK  117  A    between atoms: _270  and  _273
REMARK  118  A    between atoms: _273  and  _274
REMARK  119  A    between atoms: _274  and  _275
REMARK  120  A    between atoms: _275  and  _276
REMARK  121  A    between atoms: _276  and  _277
REMARK  122  A    between atoms: _281  and  _283
REMARK  123  A    between atoms: _283  and  _284
REMARK  124  A    between atoms: _283  and  _286
REMARK  125  A    between atoms: _286  and  _287
REMARK  126  A    between atoms: _293  and  _295
REMARK  127  A    between atoms: _295  and  _296
REMARK  128  A    between atoms: _295  and  _298
REMARK  129  A    between atoms: _298  and  _299
REMARK  130  A    between atoms: _302  and  _304
REMARK  131  A    between atoms: _304  and  _305
REMARK  132  A    between atoms: _304  and  _307
REMARK  133  A    between atoms: _307  and  _308
REMARK  134  A    between atoms: _313  and  _315
REMARK  135  A    between atoms: _315  and  _316
REMARK  136  A    between atoms: _315  and  _318
REMARK  137  A    between atoms: _318  and  _319
REMARK  138  A    between atoms: _322  and  _324
REMARK  139  A    between atoms: _324  and  _325
REMARK  140  A    between atoms: _324  and  _327
REMARK  141  A    between atoms: _327  and  _328
REMARK  142  A    between atoms: _331  and  _333
REMARK  143  A    between atoms: _333  and  _334
REMARK  144  A    between atoms: _333  and  _336
REMARK  145  A    between atoms: _336  and  _337
REMARK  146  A    between atoms: _342  and  _343
REMARK                            x       y       z     vdW  Elec       q    Type
REMARK                         _______ _______ _______ _____ _____    ______ ____
ROOT
ATOM      1  CA  MET A   1      19.207  64.561   2.499  0.00  0.00    +0.134 C 
ENDROOT
BRANCH   1   2
ATOM      2  N   MET A   1      17.809  64.172   2.401  0.00  0.00    -0.239 NA
ATOM      3  H   MET A   1      17.333  63.760   3.229  0.00  0.00    +0.142 HD
ENDBRANCH   1   2
BRANCH   1   4
ATOM      4  C   MET A   1      20.026  63.280   2.436  0.00  0.00    +0.224 C 
ATOM      5  O   MET A   1      19.801  62.355   3.224  0.00  0.00    -0.287 OA
ENDBRANCH   1   4
BRANCH   1   6
ATOM      6  CB  MET A   1      19.443  65.302   3.817  0.00  0.00    +0.037 C 
BRANCH   6   7
ATOM      7  CG  MET A   1      20.675  66.189   3.828  0.00  0.00    +0.059 C 
BRANCH   7   8
ATOM      8  SD  MET A   1      20.804  67.170   5.346  0.00  0.00    -0.139 S 
ATOM      9  CE  MET A   1      19.578  68.421   5.035  0.00  0.00    +0.069 C 
ENDBRANCH   7   8
ENDBRANCH   6   7
ENDBRANCH   1   6
TORSDOF 5
REMARK  Name = ../refined-set-2016/3adv/3adv_pocket.pdb
REMARK  146 active torsions:
REMARK  status: ('A' for Active; 'I' for Inactive)
REMARK    1  A    between atoms: _1  and  _3
REMARK    2  A    between atoms: _3  and  _4
REMARK    3  A    between atoms: _3  and  _6
REMARK    4  A    between atoms: _6  and  _7
REMARK    5  A    between atoms: _10  and  _12
REMARK    6  A    between atoms: _12  and  _13
REMARK    7  A    between atoms: _12  and  _15
REMARK    8  A    between atoms: _15  and  _16
REMARK    9  A    between atoms: _22  and  _24
REMARK   10  A    between atoms: _24  and  _25
REMARK   11  A    between atoms: _27  and  _29
REMARK   12  A    between atoms: _29  and  _30
REMARK   13  A    between atoms: _29  and  _32
REMARK   14  A    between atoms: _34  and  _36
REMARK   15  A    between atoms: _36  and  _37
REMARK   16  A    between atoms: _36  and  _39
REMARK   17  A    between atoms: _39  and  _40
REMARK   18  A    between atoms: _40  and  _41
REMARK   19  A    between atoms: _46  and  _48
REMARK   20  A    between atoms: _48  and  _49
REMARK   21  A    between atoms: _48  and  _51
REMARK   22  A    between atoms: _51  and  _52
REMARK   23  A    between atoms: _58  and  _60
REMARK   24  A    between atoms: _60  and  _61
REMARK   25  A    between atoms: _60  and  _63
REMARK   26  A    between atoms: _63  and  _64
REMARK   27  A    between atoms: _64  and  _65
REMARK   28  A    between atoms: _65  and  _66
REMARK   29  A    between atoms: _75  and  _77
REMARK   30  A    between atoms: _77  and  _78
REMARK   31  A    between atoms: _77  and  _80
REMARK   32  A    between atoms: _80  and  _81
REMARK   33  A    between atoms: _83  and  _85
REMARK   34  A    between atoms: _85  and  _86
REMARK   35  A    between atoms: _85  and  _88
REMARK   36  A    between atoms: _91  and  _93
REMARK   37  A    between atoms: _93  and  _94
REMARK   38  A    between atoms: _93  and  _96
REMARK   39  A    between atoms: _96  and  _97
REMARK   40  A    between atoms: _97  and  _98
REMARK   41  A    between atoms: _101  and  _103
REMARK   42  A    between atoms: _103  and  _104
REMARK   43  A    between atoms: _107  and  _109
REMARK   44  A    between atoms: _109  and  _110
REMARK   45  A    between atoms: _109  and  _112
REMARK   46  A    between atoms: _115  and  _117
REMARK   47  A    between atoms: _117  and  _118
REMARK   48  A    between atoms: _117  and  _120
REMARK   49  A    between atoms: _120  and  _121
REMARK   50  A    between atoms: _126  and  _128
REMARK   51  A    between atoms: _128  and  _129
REMARK   52  A    between atoms: _128  and  _131
REMARK   53  A    between atoms: _131  and  _132
REMARK   54  A    between atoms: _135  and  _137
REMARK   55  A    between atoms: _137  and  _138
REMARK   56  A    between atoms: _137  and  _140
REMARK   57  A    between atoms: _140  and  _141
REMARK   58  A    between atoms: _146  and  _147
REMARK   59  A    between atoms: _149  and  _151
REMARK   60  A    between atoms: _151  and  _152
REMARK   61  A    between atoms: _151  and  _154
REMARK   62  A    between atoms: _154  and  _155
REMARK   63  A    between atoms: _155  and  _156
REMARK   64  A    between atoms: _158  and  _160
REMARK   65  A    between atoms: _160  and  _161
REMARK   66  A    between atoms: _160  and  _163
REMARK   67  A    between atoms: _163  and  _164
REMARK   68  A    between atoms: _167  and  _169
REMARK   69  A    between atoms: _169  and  _170
REMARK   70  A    between atoms: _169  and  _172
REMARK   71  A    between atoms: _172  and  _173
REMARK   72  A    between atoms: _176  and  _178
REMARK   73  A    between atoms: _178  and  _179
REMARK   74  A    between atoms: _178  and  _181
REMARK   75  A    between atoms: _181  and  _182
REMARK   76  A    between atoms: _182  and  _183
REMARK   77  A    between atoms: _185  and  _187
REMARK   78  A    between atoms: _187  and  _188
REMARK   79  A    between atoms: _187  and  _190
REMARK   80  A    between atoms: _193  and  _195
REMARK   81  A    between atoms: _195  and  _196
REMARK   82  A    between atoms: _195  and  _198
REMARK   83  A    between atoms: _198  and  _199
REMARK   84  A    between atoms: _202  and  _204
REMARK   85  A    between atoms: _204  and  _205
REMARK   86  A    between atoms: _204  and  _207
REMARK   87  A    between atoms: _207  and  _208
REMARK   88  A    between atoms: _211  and  _213
REMARK   89  A    between atoms: _213  and  _214
REMARK   90  A    between atoms: _213  and  _216
REMARK   91  A    between atoms: _216  and  _217
REMARK   92  A    between atoms: _219  and  _221
REMARK   93  A    between atoms: _221  and  _222
REMARK   94  A    between atoms: _221  and  _224
REMARK   95  A    between atoms: _224  and  _225
REMARK   96  A    between atoms: _225  and  _226
REMARK   97  A    between atoms: _229  and  _231
REMARK   98  A    between atoms: _231  and  _232
REMARK   99  A    between atoms: _231  and  _234
REMARK  100  A    between atoms: _234  and  _235
REMARK  101  A    between atoms: _235  and  _236
REMARK  102  A    between atoms: _238  and  _240
REMARK  103  A    between atoms: _240  and  _241
REMARK  104  A    between atoms: _240  and  _243
REMARK  105  A    between atoms: _243  and  _244
REMARK  106  A    between atoms: _247  and  _249
REMARK  107  A    between atoms: _249  and  _250
REMARK  108  A    between atoms: _249  and  _252
REMARK  109  A    between atoms: _252  and  _253
REMARK  110  A    between atoms: _259  and  _261
REMARK  111  A    between atoms: _261  and  _262
REMARK  112  A    between atoms: _261  and  _264
REMARK  113  A    between atoms: _264  and  _265
REMARK  114  A    between atoms: _265  and  _266
REMARK  115  A    between atoms: _268  and  _270
REMARK  116  A    between atoms: _270  and  _271
REMARK  117  A    between atoms: _270  and  _273
REMARK  118  A    between atoms: _273  and  _274
REMARK  119  A    between atoms: _274  and  _275
REMARK  120  A    between atoms: _275  and  _276
REMARK  121  A    between atoms: _276  and  _277
REMARK  122  A    between atoms: _281  and  _283
REMARK  123  A    between atoms: _283  and  _284
REMARK  124  A    between atoms: _283  and  _286
REMARK  125  A    between atoms: _286  and  _287
REMARK  126  A    between atoms: _293  and  _295
REMARK  127  A    between atoms: _295  and  _296
REMARK  128  A    between atoms: _295  and  _298
REMARK  129  A    between atoms: _298  and  _299
REMARK  130  A    between atoms: _302  and  _304
REMARK  131  A    between atoms: _304  and  _305
REMARK  132  A    between atoms: _304  and  _307
REMARK  133  A    between atoms: _307  and  _308
REMARK  134  A    between atoms: _313  and  _315
REMARK  135  A    between atoms: _315  and  _316
REMARK  136  A    between atoms: _315  and  _318
REMARK  137  A    between atoms: _318  and  _319
REMARK  138  A    between atoms: _322  and  _324
REMARK  139  A    between atoms: _324  and  _325
REMARK  140  A    between atoms: _324  and  _327
REMARK  141  A    between atoms: _327  and  _328
REMARK  142  A    between atoms: _331  and  _333
REMARK  143  A    between atoms: _333  and  _334
REMARK  144  A    between atoms: _333  and  _336
REMARK  145  A    between atoms: _336  and  _337
REMARK  146  A    between atoms: _342  and  _343
REMARK                            x       y       z     vdW  Elec       q    Type
REMARK                         _______ _______ _______ _____ _____    ______ ____
ROOT
ATOM      1  CA  LEU A   1      25.741  64.608   5.885  0.00  0.00    +0.133 C 
ENDROOT
BRANCH   1   2
ATOM      2  N   LEU A   1      25.678  64.501   4.435  0.00  0.00    -0.239 NA
ATOM      3  H   LEU A   1      24.933  63.913   4.010  0.00  0.00    +0.142 HD
ENDBRANCH   1   2
BRANCH   1   4
ATOM      4  C   LEU A   1      27.087  64.177   6.470  0.00  0.00    +0.224 C 
ATOM      5  O   LEU A   1      27.489  64.658   7.534  0.00  0.00    -0.287 OA
ENDBRANCH   1   4
BRANCH   1   6
ATOM      6  CB  LEU A   1      24.633  63.762   6.515  0.00  0.00    +0.025 C 
BRANCH   6   7
ATOM      7  CG  LEU A   1      23.226  64.355   6.480  0.00  0.00    +0.002 C 
ATOM      8  CD2 LEU A   1      23.186  65.592   7.364  0.00  0.00    +0.000 C 
ATOM      9  CD1 LEU A   1      22.214  63.329   6.955  0.00  0.00    +0.000 C 
ENDBRANCH   6   7
ENDBRANCH   1   6
TORSDOF 4
REMARK  Name = ../refined-set-2016/3adv/3adv_pocket.pdb
REMARK  146 active torsions:
REMARK  status: ('A' for Active; 'I' for Inactive)
REMARK    1  A    between atoms: _1  and  _3
REMARK    2  A    between atoms: _3  and  _4
REMARK    3  A    between atoms: _3  and  _6
REMARK    4  A    between atoms: _6  and  _7
REMARK    5  A    between atoms: _10  and  _12
REMARK    6  A    between atoms: _12  and  _13
REMARK    7  A    between atoms: _12  and  _15
REMARK    8  A    between atoms: _15  and  _16
REMARK    9  A    between atoms: _22  and  _24
REMARK   10  A    between atoms: _24  and  _25
REMARK   11  A    between atoms: _27  and  _29
REMARK   12  A    between atoms: _29  and  _30
REMARK   13  A    between atoms: _29  and  _32
REMARK   14  A    between atoms: _34  and  _36
REMARK   15  A    between atoms: _36  and  _37
REMARK   16  A    between atoms: _36  and  _39
REMARK   17  A    between atoms: _39  and  _40
REMARK   18  A    between atoms: _40  and  _41
REMARK   19  A    between atoms: _46  and  _48
REMARK   20  A    between atoms: _48  and  _49
REMARK   21  A    between atoms: _48  and  _51
REMARK   22  A    between atoms: _51  and  _52
REMARK   23  A    between atoms: _58  and  _60
REMARK   24  A    between atoms: _60  and  _61
REMARK   25  A    between atoms: _60  and  _63
REMARK   26  A    between atoms: _63  and  _64
REMARK   27  A    between atoms: _64  and  _65
REMARK   28  A    between atoms: _65  and  _66
REMARK   29  A    between atoms: _75  and  _77
REMARK   30  A    between atoms: _77  and  _78
REMARK   31  A    between atoms: _77  and  _80
REMARK   32  A    between atoms: _80  and  _81
REMARK   33  A    between atoms: _83  and  _85
REMARK   34  A    between atoms: _85  and  _86
REMARK   35  A    between atoms: _85  and  _88
REMARK   36  A    between atoms: _91  and  _93
REMARK   37  A    between atoms: _93  and  _94
REMARK   38  A    between atoms: _93  and  _96
REMARK   39  A    between atoms: _96  and  _97
REMARK   40  A    between atoms: _97  and  _98
REMARK   41  A    between atoms: _101  and  _103
REMARK   42  A    between atoms: _103  and  _104
REMARK   43  A    between atoms: _107  and  _109
REMARK   44  A    between atoms: _109  and  _110
REMARK   45  A    between atoms: _109  and  _112
REMARK   46  A    between atoms: _115  and  _117
REMARK   47  A    between atoms: _117  and  _118
REMARK   48  A    between atoms: _117  and  _120
REMARK   49  A    between atoms: _120  and  _121
REMARK   50  A    between atoms: _126  and  _128
REMARK   51  A    between atoms: _128  and  _129
REMARK   52  A    between atoms: _128  and  _131
REMARK   53  A    between atoms: _131  and  _132
REMARK   54  A    between atoms: _135  and  _137
REMARK   55  A    between atoms: _137  and  _138
REMARK   56  A    between atoms: _137  and  _140
REMARK   57  A    between atoms: _140  and  _141
REMARK   58  A    between atoms: _146  and  _147
REMARK   59  A    between atoms: _149  and  _151
REMARK   60  A    between atoms: _151  and  _152
REMARK   61  A    between atoms: _151  and  _154
REMARK   62  A    between atoms: _154  and  _155
REMARK   63  A    between atoms: _155  and  _156
REMARK   64  A    between atoms: _158  and  _160
REMARK   65  A    between atoms: _160  and  _161
REMARK   66  A    between atoms: _160  and  _163
REMARK   67  A    between atoms: _163  and  _164
REMARK   68  A    between atoms: _167  and  _169
REMARK   69  A    between atoms: _169  and  _170
REMARK   70  A    between atoms: _169  and  _172
REMARK   71  A    between atoms: _172  and  _173
REMARK   72  A    between atoms: _176  and  _178
REMARK   73  A    between atoms: _178  and  _179
REMARK   74  A    between atoms: _178  and  _181
REMARK   75  A    between atoms: _181  and  _182
REMARK   76  A    between atoms: _182  and  _183
REMARK   77  A    between atoms: _185  and  _187
REMARK   78  A    between atoms: _187  and  _188
REMARK   79  A    between atoms: _187  and  _190
REMARK   80  A    between atoms: _193  and  _195
REMARK   81  A    between atoms: _195  and  _196
REMARK   82  A    between atoms: _195  and  _198
REMARK   83  A    between atoms: _198  and  _199
REMARK   84  A    between atoms: _202  and  _204
REMARK   85  A    between atoms: _204  and  _205
REMARK   86  A    between atoms: _204  and  _207
REMARK   87  A    between atoms: _207  and  _208
REMARK   88  A    between atoms: _211  and  _213
REMARK   89  A    between atoms: _213  and  _214
REMARK   90  A    between atoms: _213  and  _216
REMARK   91  A    between atoms: _216  and  _217
REMARK   92  A    between atoms: _219  and  _221
REMARK   93  A    between atoms: _221  and  _222
REMARK   94  A    between atoms: _221  and  _224
REMARK   95  A    between atoms: _224  and  _225
REMARK   96  A    between atoms: _225  and  _226
REMARK   97  A    between atoms: _229  and  _231
REMARK   98  A    between atoms: _231  and  _232
REMARK   99  A    between atoms: _231  and  _234
REMARK  100  A    between atoms: _234  and  _235
REMARK  101  A    between atoms: _235  and  _236
REMARK  102  A    between atoms: _238  and  _240
REMARK  103  A    between atoms: _240  and  _241
REMARK  104  A    between atoms: _240  and  _243
REMARK  105  A    between atoms: _243  and  _244
REMARK  106  A    between atoms: _247  and  _249
REMARK  107  A    between atoms: _249  and  _250
REMARK  108  A    between atoms: _249  and  _252
REMARK  109  A    between atoms: _252  and  _253
REMARK  110  A    between atoms: _259  and  _261
REMARK  111  A    between atoms: _261  and  _262
REMARK  112  A    between atoms: _261  and  _264
REMARK  113  A    between atoms: _264  and  _265
REMARK  114  A    between atoms: _265  and  _266
REMARK  115  A    between atoms: _268  and  _270
REMARK  116  A    between atoms: _270  and  _271
REMARK  117  A    between atoms: _270  and  _273
REMARK  118  A    between atoms: _273  and  _274
REMARK  119  A    between atoms: _274  and  _275
REMARK  120  A    between atoms: _275  and  _276
REMARK  121  A    between atoms: _276  and  _277
REMARK  122  A    between atoms: _281  and  _283
REMARK  123  A    between atoms: _283  and  _284
REMARK  124  A    between atoms: _283  and  _286
REMARK  125  A    between atoms: _286  and  _287
REMARK  126  A    between atoms: _293  and  _295
REMARK  127  A    between atoms: _295  and  _296
REMARK  128  A    between atoms: _295  and  _298
REMARK  129  A    between atoms: _298  and  _299
REMARK  130  A    between atoms: _302  and  _304
REMARK  131  A    between atoms: _304  and  _305
REMARK  132  A    between atoms: _304  and  _307
REMARK  133  A    between atoms: _307  and  _308
REMARK  134  A    between atoms: _313  and  _315
REMARK  135  A    between atoms: _315  and  _316
REMARK  136  A    between atoms: _315  and  _318
REMARK  137  A    between atoms: _318  and  _319
REMARK  138  A    between atoms: _322  and  _324
REMARK  139  A    between atoms: _324  and  _325
REMARK  140  A    between atoms: _324  and  _327
REMARK  141  A    between atoms: _327  and  _328
REMARK  142  A    between atoms: _331  and  _333
REMARK  143  A    between atoms: _333  and  _334
REMARK  144  A    between atoms: _333  and  _336
REMARK  145  A    between atoms: _336  and  _337
REMARK  146  A    between atoms: _342  and  _343
REMARK                            x       y       z     vdW  Elec       q    Type
REMARK                         _______ _______ _______ _____ _____    ______ ____
ROOT
ATOM      1  C   PHE A   1      25.460  61.869  13.486  0.00  0.00    +0.239 C 
ATOM      2  O   PHE A   1      24.887  61.133  14.280  0.00  0.00    -0.274 OA
ATOM      3  N   MET A   2      25.287  61.760  12.173  0.00  0.00    -0.298 N 
ATOM      4  H   MET A   2      25.840  62.354  11.522  0.00  0.00    +0.150 HD
ENDROOT
BRANCH   1   5
ATOM      5  CA  PHE A   1      26.431  62.931  13.991  0.00  0.00    +0.149 C 
BRANCH   5   6
ATOM      6  N   PHE A   1      27.672  63.087  13.246  0.00  0.00    -0.238 NA
ATOM      7  H   PHE A   1      27.862  63.967  12.725  0.00  0.00    +0.142 HD
ENDBRANCH   5   6
BRANCH   5   8
ATOM      8  CB  PHE A   1      25.686  64.270  14.102  0.00  0.00    +0.053 C 
BRANCH   8   9
ATOM      9  CG  PHE A   1      26.087  65.085  15.299  0.00  0.00    -0.020 A 
ATOM     10  CD2 PHE A   1      25.487  64.858  16.537  0.00  0.00    -0.004 A 
ATOM     11  CE2 PHE A   1      25.892  65.568  17.674  0.00  0.00    -0.000 A 
ATOM     12  CZ  PHE A   1      26.906  66.517  17.574  0.00  0.00    -0.000 A 
ATOM     13  CE1 PHE A   1      27.510  66.754  16.338  0.00  0.00    -0.000 A 
ATOM     14  CD1 PHE A   1      27.097  66.037  15.209  0.00  0.00    -0.004 A 
ENDBRANCH   8   9
ENDBRANCH   5   8
ENDBRANCH   1   5
BRANCH   3  15
ATOM     15  CA  MET A   2      24.319  60.805  11.649  0.00  0.00    +0.138 C 
BRANCH  15  16
ATOM     16  C   MET A   2      24.756  59.382  11.315  0.00  0.00    +0.227 C 
ATOM     17  O   MET A   2      23.928  58.474  11.358  0.00  0.00    -0.286 OA
ENDBRANCH  15  16
BRANCH  15  18
ATOM     18  CB  MET A   2      23.600  61.422  10.448  0.00  0.00    +0.039 C 
BRANCH  18  19
ATOM     19  CG  MET A   2      22.844  62.706  10.795  0.00  0.00    +0.060 C 
BRANCH  19  20
ATOM     20  SD  MET A   2      21.604  62.503  12.121  0.00  0.00    -0.139 S 
ATOM     21  CE  MET A   2      20.410  61.446  11.281  0.00  0.00    +0.069 C 
ENDBRANCH  19  20
ENDBRANCH  18  19
ENDBRANCH  15  18
ENDBRANCH   3  15
TORSDOF 9
REMARK  Name = ../refined-set-2016/3adv/3adv_pocket.pdb
REMARK  146 active torsions:
REMARK  status: ('A' for Active; 'I' for Inactive)
REMARK    1  A    between atoms: _1  and  _3
REMARK    2  A    between atoms: _3  and  _4
REMARK    3  A    between atoms: _3  and  _6
REMARK    4  A    between atoms: _6  and  _7
REMARK    5  A    between atoms: _10  and  _12
REMARK    6  A    between atoms: _12  and  _13
REMARK    7  A    between atoms: _12  and  _15
REMARK    8  A    between atoms: _15  and  _16
REMARK    9  A    between atoms: _22  and  _24
REMARK   10  A    between atoms: _24  and  _25
REMARK   11  A    between atoms: _27  and  _29
REMARK   12  A    between atoms: _29  and  _30
REMARK   13  A    between atoms: _29  and  _32
REMARK   14  A    between atoms: _34  and  _36
REMARK   15  A    between atoms: _36  and  _37
REMARK   16  A    between atoms: _36  and  _39
REMARK   17  A    between atoms: _39  and  _40
REMARK   18  A    between atoms: _40  and  _41
REMARK   19  A    between atoms: _46  and  _48
REMARK   20  A    between atoms: _48  and  _49
REMARK   21  A    between atoms: _48  and  _51
REMARK   22  A    between atoms: _51  and  _52
REMARK   23  A    between atoms: _58  and  _60
REMARK   24  A    between atoms: _60  and  _61
REMARK   25  A    between atoms: _60  and  _63
REMARK   26  A    between atoms: _63  and  _64
REMARK   27  A    between atoms: _64  and  _65
REMARK   28  A    between atoms: _65  and  _66
REMARK   29  A    between atoms: _75  and  _77
REMARK   30  A    between atoms: _77  and  _78
REMARK   31  A    between atoms: _77  and  _80
REMARK   32  A    between atoms: _80  and  _81
REMARK   33  A    between atoms: _83  and  _85
REMARK   34  A    between atoms: _85  and  _86
REMARK   35  A    between atoms: _85  and  _88
REMARK   36  A    between atoms: _91  and  _93
REMARK   37  A    between atoms: _93  and  _94
REMARK   38  A    between atoms: _93  and  _96
REMARK   39  A    between atoms: _96  and  _97
REMARK   40  A    between atoms: _97  and  _98
REMARK   41  A    between atoms: _101  and  _103
REMARK   42  A    between atoms: _103  and  _104
REMARK   43  A    between atoms: _107  and  _109
REMARK   44  A    between atoms: _109  and  _110
REMARK   45  A    between atoms: _109  and  _112
REMARK   46  A    between atoms: _115  and  _117
REMARK   47  A    between atoms: _117  and  _118
REMARK   48  A    between atoms: _117  and  _120
REMARK   49  A    between atoms: _120  and  _121
REMARK   50  A    between atoms: _126  and  _128
REMARK   51  A    between atoms: _128  and  _129
REMARK   52  A    between atoms: _128  and  _131
REMARK   53  A    between atoms: _131  and  _132
REMARK   54  A    between atoms: _135  and  _137
REMARK   55  A    between atoms: _137  and  _138
REMARK   56  A    between atoms: _137  and  _140
REMARK   57  A    between atoms: _140  and  _141
REMARK   58  A    between atoms: _146  and  _147
REMARK   59  A    between atoms: _149  and  _151
REMARK   60  A    between atoms: _151  and  _152
REMARK   61  A    between atoms: _151  and  _154
REMARK   62  A    between atoms: _154  and  _155
REMARK   63  A    between atoms: _155  and  _156
REMARK   64  A    between atoms: _158  and  _160
REMARK   65  A    between atoms: _160  and  _161
REMARK   66  A    between atoms: _160  and  _163
REMARK   67  A    between atoms: _163  and  _164
REMARK   68  A    between atoms: _167  and  _169
REMARK   69  A    between atoms: _169  and  _170
REMARK   70  A    between atoms: _169  and  _172
REMARK   71  A    between atoms: _172  and  _173
REMARK   72  A    between atoms: _176  and  _178
REMARK   73  A    between atoms: _178  and  _179
REMARK   74  A    between atoms: _178  and  _181
REMARK   75  A    between atoms: _181  and  _182
REMARK   76  A    between atoms: _182  and  _183
REMARK   77  A    between atoms: _185  and  _187
REMARK   78  A    between atoms: _187  and  _188
REMARK   79  A    between atoms: _187  and  _190
REMARK   80  A    between atoms: _193  and  _195
REMARK   81  A    between atoms: _195  and  _196
REMARK   82  A    between atoms: _195  and  _198
REMARK   83  A    between atoms: _198  and  _199
REMARK   84  A    between atoms: _202  and  _204
REMARK   85  A    between atoms: _204  and  _205
REMARK   86  A    between atoms: _204  and  _207
REMARK   87  A    between atoms: _207  and  _208
REMARK   88  A    between atoms: _211  and  _213
REMARK   89  A    between atoms: _213  and  _214
REMARK   90  A    between atoms: _213  and  _216
REMARK   91  A    between atoms: _216  and  _217
REMARK   92  A    between atoms: _219  and  _221
REMARK   93  A    between atoms: _221  and  _222
REMARK   94  A    between atoms: _221  and  _224
REMARK   95  A    between atoms: _224  and  _225
REMARK   96  A    between atoms: _225  and  _226
REMARK   97  A    between atoms: _229  and  _231
REMARK   98  A    between atoms: _231  and  _232
REMARK   99  A    between atoms: _231  and  _234
REMARK  100  A    between atoms: _234  and  _235
REMARK  101  A    between atoms: _235  and  _236
REMARK  102  A    between atoms: _238  and  _240
REMARK  103  A    between atoms: _240  and  _241
REMARK  104  A    between atoms: _240  and  _243
REMARK  105  A    between atoms: _243  and  _244
REMARK  106  A    between atoms: _247  and  _249
REMARK  107  A    between atoms: _249  and  _250
REMARK  108  A    between atoms: _249  and  _252
REMARK  109  A    between atoms: _252  and  _253
REMARK  110  A    between atoms: _259  and  _261
REMARK  111  A    between atoms: _261  and  _262
REMARK  112  A    between atoms: _261  and  _264
REMARK  113  A    between atoms: _264  and  _265
REMARK  114  A    between atoms: _265  and  _266
REMARK  115  A    between atoms: _268  and  _270
REMARK  116  A    between atoms: _270  and  _271
REMARK  117  A    between atoms: _270  and  _273
REMARK  118  A    between atoms: _273  and  _274
REMARK  119  A    between atoms: _274  and  _275
REMARK  120  A    between atoms: _275  and  _276
REMARK  121  A    between atoms: _276  and  _277
REMARK  122  A    between atoms: _281  and  _283
REMARK  123  A    between atoms: _283  and  _284
REMARK  124  A    between atoms: _283  and  _286
REMARK  125  A    between atoms: _286  and  _287
REMARK  126  A    between atoms: _293  and  _295
REMARK  127  A    between atoms: _295  and  _296
REMARK  128  A    between atoms: _295  and  _298
REMARK  129  A    between atoms: _298  and  _299
REMARK  130  A    between atoms: _302  and  _304
REMARK  131  A    between atoms: _304  and  _305
REMARK  132  A    between atoms: _304  and  _307
REMARK  133  A    between atoms: _307  and  _308
REMARK  134  A    between atoms: _313  and  _315
REMARK  135  A    between atoms: _315  and  _316
REMARK  136  A    between atoms: _315  and  _318
REMARK  137  A    between atoms: _318  and  _319
REMARK  138  A    between atoms: _322  and  _324
REMARK  139  A    between atoms: _324  and  _325
REMARK  140  A    between atoms: _324  and  _327
REMARK  141  A    between atoms: _327  and  _328
REMARK  142  A    between atoms: _331  and  _333
REMARK  143  A    between atoms: _333  and  _334
REMARK  144  A    between atoms: _333  and  _336
REMARK  145  A    between atoms: _336  and  _337
REMARK  146  A    between atoms: _342  and  _343
REMARK                            x       y       z     vdW  Elec       q    Type
REMARK                         _______ _______ _______ _____ _____    ______ ____
ROOT
ATOM      1  C   LYS A   1      21.669  55.572  11.799  0.00  0.00    +0.238 C 
ATOM      2  O   LYS A   1      20.846  54.656  11.798  0.00  0.00    -0.274 OA
ATOM      3  N   PHE A   2      22.391  55.887  10.730  0.00  0.00    -0.298 N 
ATOM      4  H   PHE A   2      23.058  56.683  10.775  0.00  0.00    +0.150 HD
ENDROOT
BRANCH   1   5
ATOM      5  CA  LYS A   1      21.894  56.416  13.050  0.00  0.00    +0.145 C 
BRANCH   5   6
ATOM      6  N   LYS A   1      23.325  56.550  13.305  0.00  0.00    -0.238 NA
ATOM      7  H   LYS A   1      23.747  57.500  13.296  0.00  0.00    +0.142 HD
ENDBRANCH   5   6
BRANCH   5   8
ATOM      8  CB  LYS A   1      21.244  57.789  12.836  0.00  0.00    +0.026 C 
BRANCH   8   9
ATOM      9  CG  LYS A   1      21.751  58.912  13.734  0.00  0.00    -0.000 C 
BRANCH   9  10
ATOM     10  CD  LYS A   1      21.575  58.600  15.188  0.00  0.00    -0.024 C 
BRANCH  10  11
ATOM     11  CE  LYS A   1      21.730  59.859  16.027  0.00  0.00    -0.086 C 
BRANCH  11  12
ATOM     12  NZ  LYS A   1      23.004  60.588  15.787  0.00  0.00    +0.380 N 
ATOM     13  HZ1 LYS A   1      23.038  61.433  16.393  0.00  0.00    -0.089 HD
ATOM     14  HZ2 LYS A   1      23.806  59.966  16.013  0.00  0.00    -0.089 HD
ATOM     15  HZ3 LYS A   1      23.056  60.874  14.788  0.00  0.00    -0.089 HD
ENDBRANCH  11  12
ENDBRANCH  10  11
ENDBRANCH   9  10
ENDBRANCH   8   9
ENDBRANCH   5   8
ENDBRANCH   1   5
BRANCH   3  16
ATOM     16  CA  PHE A   2      22.256  55.127   9.497  0.00  0.00    +0.141 C 
BRANCH  16  17
ATOM     17  C   PHE A   2      22.638  53.667   9.734  0.00  0.00    +0.227 C 
ATOM     18  O   PHE A   2      21.958  52.751   9.263  0.00  0.00    -0.286 OA
ENDBRANCH  16  17
BRANCH  16  19
ATOM     19  CB  PHE A   2      23.135  55.735   8.408  0.00  0.00    +0.054 C 
BRANCH  19  20
ATOM     20  CG  PHE A   2      22.581  57.002   7.821  0.00  0.00    -0.020 A 
ATOM     21  CD2 PHE A   2      23.159  58.233   8.118  0.00  0.00    -0.004 A 
ATOM     22  CE2 PHE A   2      22.652  59.414   7.568  0.00  0.00    -0.000 A 
ATOM     23  CZ  PHE A   2      21.550  59.366   6.708  0.00  0.00    -0.000 A 
ATOM     24  CE1 PHE A   2      20.963  58.141   6.407  0.00  0.00    -0.000 A 
ATOM     25  CD1 PHE A   2      21.479  56.966   6.965  0.00  0.00    -0.004 A 
ENDBRANCH  19  20
ENDBRANCH  16  19
ENDBRANCH   3  16
TORSDOF 11
REMARK  Name = ../refined-set-2016/3adv/3adv_pocket.pdb
REMARK  146 active torsions:
REMARK  status: ('A' for Active; 'I' for Inactive)
REMARK    1  A    between atoms: _1  and  _3
REMARK    2  A    between atoms: _3  and  _4
REMARK    3  A    between atoms: _3  and  _6
REMARK    4  A    between atoms: _6  and  _7
REMARK    5  A    between atoms: _10  and  _12
REMARK    6  A    between atoms: _12  and  _13
REMARK    7  A    between atoms: _12  and  _15
REMARK    8  A    between atoms: _15  and  _16
REMARK    9  A    between atoms: _22  and  _24
REMARK   10  A    between atoms: _24  and  _25
REMARK   11  A    between atoms: _27  and  _29
REMARK   12  A    between atoms: _29  and  _30
REMARK   13  A    between atoms: _29  and  _32
REMARK   14  A    between atoms: _34  and  _36
REMARK   15  A    between atoms: _36  and  _37
REMARK   16  A    between atoms: _36  and  _39
REMARK   17  A    between atoms: _39  and  _40
REMARK   18  A    between atoms: _40  and  _41
REMARK   19  A    between atoms: _46  and  _48
REMARK   20  A    between atoms: _48  and  _49
REMARK   21  A    between atoms: _48  and  _51
REMARK   22  A    between atoms: _51  and  _52
REMARK   23  A    between atoms: _58  and  _60
REMARK   24  A    between atoms: _60  and  _61
REMARK   25  A    between atoms: _60  and  _63
REMARK   26  A    between atoms: _63  and  _64
REMARK   27  A    between atoms: _64  and  _65
REMARK   28  A    between atoms: _65  and  _66
REMARK   29  A    between atoms: _75  and  _77
REMARK   30  A    between atoms: _77  and  _78
REMARK   31  A    between atoms: _77  and  _80
REMARK   32  A    between atoms: _80  and  _81
REMARK   33  A    between atoms: _83  and  _85
REMARK   34  A    between atoms: _85  and  _86
REMARK   35  A    between atoms: _85  and  _88
REMARK   36  A    between atoms: _91  and  _93
REMARK   37  A    between atoms: _93  and  _94
REMARK   38  A    between atoms: _93  and  _96
REMARK   39  A    between atoms: _96  and  _97
REMARK   40  A    between atoms: _97  and  _98
REMARK   41  A    between atoms: _101  and  _103
REMARK   42  A    between atoms: _103  and  _104
REMARK   43  A    between atoms: _107  and  _109
REMARK   44  A    between atoms: _109  and  _110
REMARK   45  A    between atoms: _109  and  _112
REMARK   46  A    between atoms: _115  and  _117
REMARK   47  A    between atoms: _117  and  _118
REMARK   48  A    between atoms: _117  and  _120
REMARK   49  A    between atoms: _120  and  _121
REMARK   50  A    between atoms: _126  and  _128
REMARK   51  A    between atoms: _128  and  _129
REMARK   52  A    between atoms: _128  and  _131
REMARK   53  A    between atoms: _131  and  _132
REMARK   54  A    between atoms: _135  and  _137
REMARK   55  A    between atoms: _137  and  _138
REMARK   56  A    between atoms: _137  and  _140
REMARK   57  A    between atoms: _140  and  _141
REMARK   58  A    between atoms: _146  and  _147
REMARK   59  A    between atoms: _149  and  _151
REMARK   60  A    between atoms: _151  and  _152
REMARK   61  A    between atoms: _151  and  _154
REMARK   62  A    between atoms: _154  and  _155
REMARK   63  A    between atoms: _155  and  _156
REMARK   64  A    between atoms: _158  and  _160
REMARK   65  A    between atoms: _160  and  _161
REMARK   66  A    between atoms: _160  and  _163
REMARK   67  A    between atoms: _163  and  _164
REMARK   68  A    between atoms: _167  and  _169
REMARK   69  A    between atoms: _169  and  _170
REMARK   70  A    between atoms: _169  and  _172
REMARK   71  A    between atoms: _172  and  _173
REMARK   72  A    between atoms: _176  and  _178
REMARK   73  A    between atoms: _178  and  _179
REMARK   74  A    between atoms: _178  and  _181
REMARK   75  A    between atoms: _181  and  _182
REMARK   76  A    between atoms: _182  and  _183
REMARK   77  A    between atoms: _185  and  _187
REMARK   78  A    between atoms: _187  and  _188
REMARK   79  A    between atoms: _187  and  _190
REMARK   80  A    between atoms: _193  and  _195
REMARK   81  A    between atoms: _195  and  _196
REMARK   82  A    between atoms: _195  and  _198
REMARK   83  A    between atoms: _198  and  _199
REMARK   84  A    between atoms: _202  and  _204
REMARK   85  A    between atoms: _204  and  _205
REMARK   86  A    between atoms: _204  and  _207
REMARK   87  A    between atoms: _207  and  _208
REMARK   88  A    between atoms: _211  and  _213
REMARK   89  A    between atoms: _213  and  _214
REMARK   90  A    between atoms: _213  and  _216
REMARK   91  A    between atoms: _216  and  _217
REMARK   92  A    between atoms: _219  and  _221
REMARK   93  A    between atoms: _221  and  _222
REMARK   94  A    between atoms: _221  and  _224
REMARK   95  A    between atoms: _224  and  _225
REMARK   96  A    between atoms: _225  and  _226
REMARK   97  A    between atoms: _229  and  _231
REMARK   98  A    between atoms: _231  and  _232
REMARK   99  A    between atoms: _231  and  _234
REMARK  100  A    between atoms: _234  and  _235
REMARK  101  A    between atoms: _235  and  _236
REMARK  102  A    between atoms: _238  and  _240
REMARK  103  A    between atoms: _240  and  _241
REMARK  104  A    between atoms: _240  and  _243
REMARK  105  A    between atoms: _243  and  _244
REMARK  106  A    between atoms: _247  and  _249
REMARK  107  A    between atoms: _249  and  _250
REMARK  108  A    between atoms: _249  and  _252
REMARK  109  A    between atoms: _252  and  _253
REMARK  110  A    between atoms: _259  and  _261
REMARK  111  A    between atoms: _261  and  _262
REMARK  112  A    between atoms: _261  and  _264
REMARK  113  A    between atoms: _264  and  _265
REMARK  114  A    between atoms: _265  and  _266
REMARK  115  A    between atoms: _268  and  _270
REMARK  116  A    between atoms: _270  and  _271
REMARK  117  A    between atoms: _270  and  _273
REMARK  118  A    between atoms: _273  and  _274
REMARK  119  A    between atoms: _274  and  _275
REMARK  120  A    between atoms: _275  and  _276
REMARK  121  A    between atoms: _276  and  _277
REMARK  122  A    between atoms: _281  and  _283
REMARK  123  A    between atoms: _283  and  _284
REMARK  124  A    between atoms: _283  and  _286
REMARK  125  A    between atoms: _286  and  _287
REMARK  126  A    between atoms: _293  and  _295
REMARK  127  A    between atoms: _295  and  _296
REMARK  128  A    between atoms: _295  and  _298
REMARK  129  A    between atoms: _298  and  _299
REMARK  130  A    between atoms: _302  and  _304
REMARK  131  A    between atoms: _304  and  _305
REMARK  132  A    between atoms: _304  and  _307
REMARK  133  A    between atoms: _307  and  _308
REMARK  134  A    between atoms: _313  and  _315
REMARK  135  A    between atoms: _315  and  _316
REMARK  136  A    between atoms: _315  and  _318
REMARK  137  A    between atoms: _318  and  _319
REMARK  138  A    between atoms: _322  and  _324
REMARK  139  A    between atoms: _324  and  _325
REMARK  140  A    between atoms: _324  and  _327
REMARK  141  A    between atoms: _327  and  _328
REMARK  142  A    between atoms: _331  and  _333
REMARK  143  A    between atoms: _333  and  _334
REMARK  144  A    between atoms: _333  and  _336
REMARK  145  A    between atoms: _336  and  _337
REMARK  146  A    between atoms: _342  and  _343
REMARK                            x       y       z     vdW  Elec       q    Type
REMARK                         _______ _______ _______ _____ _____    ______ ____
ROOT
ATOM      1  CA  ILE A   1      23.434  55.544  19.753  0.00  0.00    +0.133 C 
ENDROOT
BRANCH   1   2
ATOM      2  N   ILE A   1      23.670  54.401  20.625  0.00  0.00    -0.239 NA
ATOM      3  H   ILE A   1      23.004  53.602  20.616  0.00  0.00    +0.142 HD
ENDBRANCH   1   2
BRANCH   1   4
ATOM      4  C   ILE A   1      23.268  56.784  20.624  0.00  0.00    +0.224 C 
ATOM      5  O   ILE A   1      23.929  57.797  20.413  0.00  0.00    -0.287 OA
ENDBRANCH   1   4
BRANCH   1   6
ATOM      6  CB  ILE A   1      22.151  55.349  18.910  0.00  0.00    +0.023 C 
ATOM      7  CG2 ILE A   1      21.865  56.590  18.082  0.00  0.00    +0.002 C 
BRANCH   6   8
ATOM      8  CG1 ILE A   1      22.315  54.131  18.009  0.00  0.00    +0.002 C 
ATOM      9  CD1 ILE A   1      23.511  54.213  17.096  0.00  0.00    +0.000 C 
ENDBRANCH   6   8
ENDBRANCH   1   6
TORSDOF 4
REMARK  Name = ../refined-set-2016/3adv/3adv_pocket.pdb
REMARK  146 active torsions:
REMARK  status: ('A' for Active; 'I' for Inactive)
REMARK    1  A    between atoms: _1  and  _3
REMARK    2  A    between atoms: _3  and  _4
REMARK    3  A    between atoms: _3  and  _6
REMARK    4  A    between atoms: _6  and  _7
REMARK    5  A    between atoms: _10  and  _12
REMARK    6  A    between atoms: _12  and  _13
REMARK    7  A    between atoms: _12  and  _15
REMARK    8  A    between atoms: _15  and  _16
REMARK    9  A    between atoms: _22  and  _24
REMARK   10  A    between atoms: _24  and  _25
REMARK   11  A    between atoms: _27  and  _29
REMARK   12  A    between atoms: _29  and  _30
REMARK   13  A    between atoms: _29  and  _32
REMARK   14  A    between atoms: _34  and  _36
REMARK   15  A    between atoms: _36  and  _37
REMARK   16  A    between atoms: _36  and  _39
REMARK   17  A    between atoms: _39  and  _40
REMARK   18  A    between atoms: _40  and  _41
REMARK   19  A    between atoms: _46  and  _48
REMARK   20  A    between atoms: _48  and  _49
REMARK   21  A    between atoms: _48  and  _51
REMARK   22  A    between atoms: _51  and  _52
REMARK   23  A    between atoms: _58  and  _60
REMARK   24  A    between atoms: _60  and  _61
REMARK   25  A    between atoms: _60  and  _63
REMARK   26  A    between atoms: _63  and  _64
REMARK   27  A    between atoms: _64  and  _65
REMARK   28  A    between atoms: _65  and  _66
REMARK   29  A    between atoms: _75  and  _77
REMARK   30  A    between atoms: _77  and  _78
REMARK   31  A    between atoms: _77  and  _80
REMARK   32  A    between atoms: _80  and  _81
REMARK   33  A    between atoms: _83  and  _85
REMARK   34  A    between atoms: _85  and  _86
REMARK   35  A    between atoms: _85  and  _88
REMARK   36  A    between atoms: _91  and  _93
REMARK   37  A    between atoms: _93  and  _94
REMARK   38  A    between atoms: _93  and  _96
REMARK   39  A    between atoms: _96  and  _97
REMARK   40  A    between atoms: _97  and  _98
REMARK   41  A    between atoms: _101  and  _103
REMARK   42  A    between atoms: _103  and  _104
REMARK   43  A    between atoms: _107  and  _109
REMARK   44  A    between atoms: _109  and  _110
REMARK   45  A    between atoms: _109  and  _112
REMARK   46  A    between atoms: _115  and  _117
REMARK   47  A    between atoms: _117  and  _118
REMARK   48  A    between atoms: _117  and  _120
REMARK   49  A    between atoms: _120  and  _121
REMARK   50  A    between atoms: _126  and  _128
REMARK   51  A    between atoms: _128  and  _129
REMARK   52  A    between atoms: _128  and  _131
REMARK   53  A    between atoms: _131  and  _132
REMARK   54  A    between atoms: _135  and  _137
REMARK   55  A    between atoms: _137  and  _138
REMARK   56  A    between atoms: _137  and  _140
REMARK   57  A    between atoms: _140  and  _141
REMARK   58  A    between atoms: _146  and  _147
REMARK   59  A    between atoms: _149  and  _151
REMARK   60  A    between atoms: _151  and  _152
REMARK   61  A    between atoms: _151  and  _154
REMARK   62  A    between atoms: _154  and  _155
REMARK   63  A    between atoms: _155  and  _156
REMARK   64  A    between atoms: _158  and  _160
REMARK   65  A    between atoms: _160  and  _161
REMARK   66  A    between atoms: _160  and  _163
REMARK   67  A    between atoms: _163  and  _164
REMARK   68  A    between atoms: _167  and  _169
REMARK   69  A    between atoms: _169  and  _170
REMARK   70  A    between atoms: _169  and  _172
REMARK   71  A    between atoms: _172  and  _173
REMARK   72  A    between atoms: _176  and  _178
REMARK   73  A    between atoms: _178  and  _179
REMARK   74  A    between atoms: _178  and  _181
REMARK   75  A    between atoms: _181  and  _182
REMARK   76  A    between atoms: _182  and  _183
REMARK   77  A    between atoms: _185  and  _187
REMARK   78  A    between atoms: _187  and  _188
REMARK   79  A    between atoms: _187  and  _190
REMARK   80  A    between atoms: _193  and  _195
REMARK   81  A    between atoms: _195  and  _196
REMARK   82  A    between atoms: _195  and  _198
REMARK   83  A    between atoms: _198  and  _199
REMARK   84  A    between atoms: _202  and  _204
REMARK   85  A    between atoms: _204  and  _205
REMARK   86  A    between atoms: _204  and  _207
REMARK   87  A    between atoms: _207  and  _208
REMARK   88  A    between atoms: _211  and  _213
REMARK   89  A    between atoms: _213  and  _214
REMARK   90  A    between atoms: _213  and  _216
REMARK   91  A    between atoms: _216  and  _217
REMARK   92  A    between atoms: _219  and  _221
REMARK   93  A    between atoms: _221  and  _222
REMARK   94  A    between atoms: _221  and  _224
REMARK   95  A    between atoms: _224  and  _225
REMARK   96  A    between atoms: _225  and  _226
REMARK   97  A    between atoms: _229  and  _231
REMARK   98  A    between atoms: _231  and  _232
REMARK   99  A    between atoms: _231  and  _234
REMARK  100  A    between atoms: _234  and  _235
REMARK  101  A    between atoms: _235  and  _236
REMARK  102  A    between atoms: _238  and  _240
REMARK  103  A    between atoms: _240  and  _241
REMARK  104  A    between atoms: _240  and  _243
REMARK  105  A    between atoms: _243  and  _244
REMARK  106  A    between atoms: _247  and  _249
REMARK  107  A    between atoms: _249  and  _250
REMARK  108  A    between atoms: _249  and  _252
REMARK  109  A    between atoms: _252  and  _253
REMARK  110  A    between atoms: _259  and  _261
REMARK  111  A    between atoms: _261  and  _262
REMARK  112  A    between atoms: _261  and  _264
REMARK  113  A    between atoms: _264  and  _265
REMARK  114  A    between atoms: _265  and  _266
REMARK  115  A    between atoms: _268  and  _270
REMARK  116  A    between atoms: _270  and  _271
REMARK  117  A    between atoms: _270  and  _273
REMARK  118  A    between atoms: _273  and  _274
REMARK  119  A    between atoms: _274  and  _275
REMARK  120  A    between atoms: _275  and  _276
REMARK  121  A    between atoms: _276  and  _277
REMARK  122  A    between atoms: _281  and  _283
REMARK  123  A    between atoms: _283  and  _284
REMARK  124  A    between atoms: _283  and  _286
REMARK  125  A    between atoms: _286  and  _287
REMARK  126  A    between atoms: _293  and  _295
REMARK  127  A    between atoms: _295  and  _296
REMARK  128  A    between atoms: _295  and  _298
REMARK  129  A    between atoms: _298  and  _299
REMARK  130  A    between atoms: _302  and  _304
REMARK  131  A    between atoms: _304  and  _305
REMARK  132  A    between atoms: _304  and  _307
REMARK  133  A    between atoms: _307  and  _308
REMARK  134  A    between atoms: _313  and  _315
REMARK  135  A    between atoms: _315  and  _316
REMARK  136  A    between atoms: _315  and  _318
REMARK  137  A    between atoms: _318  and  _319
REMARK  138  A    between atoms: _322  and  _324
REMARK  139  A    between atoms: _324  and  _325
REMARK  140  A    between atoms: _324  and  _327
REMARK  141  A    between atoms: _327  and  _328
REMARK  142  A    between atoms: _331  and  _333
REMARK  143  A    between atoms: _333  and  _334
REMARK  144  A    between atoms: _333  and  _336
REMARK  145  A    between atoms: _336  and  _337
REMARK  146  A    between atoms: _342  and  _343
REMARK                            x       y       z     vdW  Elec       q    Type
REMARK                         _______ _______ _______ _____ _____    ______ ____
ROOT
ATOM      1  CB  HIS A   1      23.717  61.225  20.281  0.00  0.00    +0.072 C 
ENDROOT
BRANCH   1   2
ATOM      2  CG  HIS A   1      23.053  62.534  19.977  0.00  0.00    +0.082 A 
ATOM      3  CD2 HIS A   1      22.365  63.389  20.771  0.00  0.00    +0.115 A 
ATOM      4  NE2 HIS A   1      21.993  64.457  19.992  0.00  0.00    -0.221 NA
ATOM      5  CE1 HIS A   1      22.436  64.266  18.761  0.00  0.00    +0.199 A 
ATOM      6  ND1 HIS A   1      23.079  63.113  18.725  0.00  0.00    -0.227 NA
ENDBRANCH   1   2
BRANCH   1   7
ATOM      7  CA  HIS A   1      25.230  61.337  20.503  0.00  0.00    +0.139 C 
BRANCH   7   8
ATOM      8  N   HIS A   1      25.806  60.034  20.813  0.00  0.00    -0.239 NA
ATOM      9  H   HIS A   1      25.191  59.196  20.843  0.00  0.00    +0.142 HD
ENDBRANCH   7   8
BRANCH   7  10
ATOM     10  C   HIS A   1      25.509  62.326  21.629  0.00  0.00    +0.224 C 
ATOM     11  O   HIS A   1      25.992  63.430  21.393  0.00  0.00    -0.287 OA
ENDBRANCH   7  10
ENDBRANCH   1   7
TORSDOF 4
REMARK  Name = ../refined-set-2016/3adv/3adv_pocket.pdb
REMARK  146 active torsions:
REMARK  status: ('A' for Active; 'I' for Inactive)
REMARK    1  A    between atoms: _1  and  _3
REMARK    2  A    between atoms: _3  and  _4
REMARK    3  A    between atoms: _3  and  _6
REMARK    4  A    between atoms: _6  and  _7
REMARK    5  A    between atoms: _10  and  _12
REMARK    6  A    between atoms: _12  and  _13
REMARK    7  A    between atoms: _12  and  _15
REMARK    8  A    between atoms: _15  and  _16
REMARK    9  A    between atoms: _22  and  _24
REMARK   10  A    between atoms: _24  and  _25
REMARK   11  A    between atoms: _27  and  _29
REMARK   12  A    between atoms: _29  and  _30
REMARK   13  A    between atoms: _29  and  _32
REMARK   14  A    between atoms: _34  and  _36
REMARK   15  A    between atoms: _36  and  _37
REMARK   16  A    between atoms: _36  and  _39
REMARK   17  A    between atoms: _39  and  _40
REMARK   18  A    between atoms: _40  and  _41
REMARK   19  A    between atoms: _46  and  _48
REMARK   20  A    between atoms: _48  and  _49
REMARK   21  A    between atoms: _48  and  _51
REMARK   22  A    between atoms: _51  and  _52
REMARK   23  A    between atoms: _58  and  _60
REMARK   24  A    between atoms: _60  and  _61
REMARK   25  A    between atoms: _60  and  _63
REMARK   26  A    between atoms: _63  and  _64
REMARK   27  A    between atoms: _64  and  _65
REMARK   28  A    between atoms: _65  and  _66
REMARK   29  A    between atoms: _75  and  _77
REMARK   30  A    between atoms: _77  and  _78
REMARK   31  A    between atoms: _77  and  _80
REMARK   32  A    between atoms: _80  and  _81
REMARK   33  A    between atoms: _83  and  _85
REMARK   34  A    between atoms: _85  and  _86
REMARK   35  A    between atoms: _85  and  _88
REMARK   36  A    between atoms: _91  and  _93
REMARK   37  A    between atoms: _93  and  _94
REMARK   38  A    between atoms: _93  and  _96
REMARK   39  A    between atoms: _96  and  _97
REMARK   40  A    between atoms: _97  and  _98
REMARK   41  A    between atoms: _101  and  _103
REMARK   42  A    between atoms: _103  and  _104
REMARK   43  A    between atoms: _107  and  _109
REMARK   44  A    between atoms: _109  and  _110
REMARK   45  A    between atoms: _109  and  _112
REMARK   46  A    between atoms: _115  and  _117
REMARK   47  A    between atoms: _117  and  _118
REMARK   48  A    between atoms: _117  and  _120
REMARK   49  A    between atoms: _120  and  _121
REMARK   50  A    between atoms: _126  and  _128
REMARK   51  A    between atoms: _128  and  _129
REMARK   52  A    between atoms: _128  and  _131
REMARK   53  A    between atoms: _131  and  _132
REMARK   54  A    between atoms: _135  and  _137
REMARK   55  A    between atoms: _137  and  _138
REMARK   56  A    between atoms: _137  and  _140
REMARK   57  A    between atoms: _140  and  _141
REMARK   58  A    between atoms: _146  and  _147
REMARK   59  A    between atoms: _149  and  _151
REMARK   60  A    between atoms: _151  and  _152
REMARK   61  A    between atoms: _151  and  _154
REMARK   62  A    between atoms: _154  and  _155
REMARK   63  A    between atoms: _155  and  _156
REMARK   64  A    between atoms: _158  and  _160
REMARK   65  A    between atoms: _160  and  _161
REMARK   66  A    between atoms: _160  and  _163
REMARK   67  A    between atoms: _163  and  _164
REMARK   68  A    between atoms: _167  and  _169
REMARK   69  A    between atoms: _169  and  _170
REMARK   70  A    between atoms: _169  and  _172
REMARK   71  A    between atoms: _172  and  _173
REMARK   72  A    between atoms: _176  and  _178
REMARK   73  A    between atoms: _178  and  _179
REMARK   74  A    between atoms: _178  and  _181
REMARK   75  A    between atoms: _181  and  _182
REMARK   76  A    between atoms: _182  and  _183
REMARK   77  A    between atoms: _185  and  _187
REMARK   78  A    between atoms: _187  and  _188
REMARK   79  A    between atoms: _187  and  _190
REMARK   80  A    between atoms: _193  and  _195
REMARK   81  A    between atoms: _195  and  _196
REMARK   82  A    between atoms: _195  and  _198
REMARK   83  A    between atoms: _198  and  _199
REMARK   84  A    between atoms: _202  and  _204
REMARK   85  A    between atoms: _204  and  _205
REMARK   86  A    between atoms: _204  and  _207
REMARK   87  A    between atoms: _207  and  _208
REMARK   88  A    between atoms: _211  and  _213
REMARK   89  A    between atoms: _213  and  _214
REMARK   90  A    between atoms: _213  and  _216
REMARK   91  A    between atoms: _216  and  _217
REMARK   92  A    between atoms: _219  and  _221
REMARK   93  A    between atoms: _221  and  _222
REMARK   94  A    between atoms: _221  and  _224
REMARK   95  A    between atoms: _224  and  _225
REMARK   96  A    between atoms: _225  and  _226
REMARK   97  A    between atoms: _229  and  _231
REMARK   98  A    between atoms: _231  and  _232
REMARK   99  A    between atoms: _231  and  _234
REMARK  100  A    between atoms: _234  and  _235
REMARK  101  A    between atoms: _235  and  _236
REMARK  102  A    between atoms: _238  and  _240
REMARK  103  A    between atoms: _240  and  _241
REMARK  104  A    between atoms: _240  and  _243
REMARK  105  A    between atoms: _243  and  _244
REMARK  106  A    between atoms: _247  and  _249
REMARK  107  A    between atoms: _249  and  _250
REMARK  108  A    between atoms: _249  and  _252
REMARK  109  A    between atoms: _252  and  _253
REMARK  110  A    between atoms: _259  and  _261
REMARK  111  A    between atoms: _261  and  _262
REMARK  112  A    between atoms: _261  and  _264
REMARK  113  A    between atoms: _264  and  _265
REMARK  114  A    between atoms: _265  and  _266
REMARK  115  A    between atoms: _268  and  _270
REMARK  116  A    between atoms: _270  and  _271
REMARK  117  A    between atoms: _270  and  _273
REMARK  118  A    between atoms: _273  and  _274
REMARK  119  A    between atoms: _274  and  _275
REMARK  120  A    between atoms: _275  and  _276
REMARK  121  A    between atoms: _276  and  _277
REMARK  122  A    between atoms: _281  and  _283
REMARK  123  A    between atoms: _283  and  _284
REMARK  124  A    between atoms: _283  and  _286
REMARK  125  A    between atoms: _286  and  _287
REMARK  126  A    between atoms: _293  and  _295
REMARK  127  A    between atoms: _295  and  _296
REMARK  128  A    between atoms: _295  and  _298
REMARK  129  A    between atoms: _298  and  _299
REMARK  130  A    between atoms: _302  and  _304
REMARK  131  A    between atoms: _304  and  _305
REMARK  132  A    between atoms: _304  and  _307
REMARK  133  A    between atoms: _307  and  _308
REMARK  134  A    between atoms: _313  and  _315
REMARK  135  A    between atoms: _315  and  _316
REMARK  136  A    between atoms: _315  and  _318
REMARK  137  A    between atoms: _318  and  _319
REMARK  138  A    between atoms: _322  and  _324
REMARK  139  A    between atoms: _324  and  _325
REMARK  140  A    between atoms: _324  and  _327
REMARK  141  A    between atoms: _327  and  _328
REMARK  142  A    between atoms: _331  and  _333
REMARK  143  A    between atoms: _333  and  _334
REMARK  144  A    between atoms: _333  and  _336
REMARK  145  A    between atoms: _336  and  _337
REMARK  146  A    between atoms: _342  and  _343
REMARK                            x       y       z     vdW  Elec       q    Type
REMARK                         _______ _______ _______ _____ _____    ______ ____
ROOT
ATOM      1  CA  LEU A   1      27.174  67.159  22.048  0.00  0.00    +0.133 C 
ENDROOT
BRANCH   1   2
ATOM      2  N   LEU A   1      27.659  65.839  21.669  0.00  0.00    -0.239 NA
ATOM      3  H   LEU A   1      27.098  64.997  21.911  0.00  0.00    +0.142 HD
ENDBRANCH   1   2
BRANCH   1   4
ATOM      4  C   LEU A   1      28.186  67.828  22.984  0.00  0.00    +0.224 C 
ATOM      5  O   LEU A   1      28.569  68.984  22.779  0.00  0.00    -0.287 OA
ENDBRANCH   1   4
BRANCH   1   6
ATOM      6  CB  LEU A   1      25.813  67.056  22.747  0.00  0.00    +0.025 C 
BRANCH   6   7
ATOM      7  CG  LEU A   1      24.539  66.994  21.897  0.00  0.00    +0.002 C 
ATOM      8  CD2 LEU A   1      24.357  68.307  21.156  0.00  0.00    +0.000 C 
ATOM      9  CD1 LEU A   1      24.613  65.845  20.921  0.00  0.00    +0.000 C 
ENDBRANCH   6   7
ENDBRANCH   1   6
TORSDOF 4
REMARK  Name = ../refined-set-2016/3adv/3adv_pocket.pdb
REMARK  146 active torsions:
REMARK  status: ('A' for Active; 'I' for Inactive)
REMARK    1  A    between atoms: _1  and  _3
REMARK    2  A    between atoms: _3  and  _4
REMARK    3  A    between atoms: _3  and  _6
REMARK    4  A    between atoms: _6  and  _7
REMARK    5  A    between atoms: _10  and  _12
REMARK    6  A    between atoms: _12  and  _13
REMARK    7  A    between atoms: _12  and  _15
REMARK    8  A    between atoms: _15  and  _16
REMARK    9  A    between atoms: _22  and  _24
REMARK   10  A    between atoms: _24  and  _25
REMARK   11  A    between atoms: _27  and  _29
REMARK   12  A    between atoms: _29  and  _30
REMARK   13  A    between atoms: _29  and  _32
REMARK   14  A    between atoms: _34  and  _36
REMARK   15  A    between atoms: _36  and  _37
REMARK   16  A    between atoms: _36  and  _39
REMARK   17  A    between atoms: _39  and  _40
REMARK   18  A    between atoms: _40  and  _41
REMARK   19  A    between atoms: _46  and  _48
REMARK   20  A    between atoms: _48  and  _49
REMARK   21  A    between atoms: _48  and  _51
REMARK   22  A    between atoms: _51  and  _52
REMARK   23  A    between atoms: _58  and  _60
REMARK   24  A    between atoms: _60  and  _61
REMARK   25  A    between atoms: _60  and  _63
REMARK   26  A    between atoms: _63  and  _64
REMARK   27  A    between atoms: _64  and  _65
REMARK   28  A    between atoms: _65  and  _66
REMARK   29  A    between atoms: _75  and  _77
REMARK   30  A    between atoms: _77  and  _78
REMARK   31  A    between atoms: _77  and  _80
REMARK   32  A    between atoms: _80  and  _81
REMARK   33  A    between atoms: _83  and  _85
REMARK   34  A    between atoms: _85  and  _86
REMARK   35  A    between atoms: _85  and  _88
REMARK   36  A    between atoms: _91  and  _93
REMARK   37  A    between atoms: _93  and  _94
REMARK   38  A    between atoms: _93  and  _96
REMARK   39  A    between atoms: _96  and  _97
REMARK   40  A    between atoms: _97  and  _98
REMARK   41  A    between atoms: _101  and  _103
REMARK   42  A    between atoms: _103  and  _104
REMARK   43  A    between atoms: _107  and  _109
REMARK   44  A    between atoms: _109  and  _110
REMARK   45  A    between atoms: _109  and  _112
REMARK   46  A    between atoms: _115  and  _117
REMARK   47  A    between atoms: _117  and  _118
REMARK   48  A    between atoms: _117  and  _120
REMARK   49  A    between atoms: _120  and  _121
REMARK   50  A    between atoms: _126  and  _128
REMARK   51  A    between atoms: _128  and  _129
REMARK   52  A    between atoms: _128  and  _131
REMARK   53  A    between atoms: _131  and  _132
REMARK   54  A    between atoms: _135  and  _137
REMARK   55  A    between atoms: _137  and  _138
REMARK   56  A    between atoms: _137  and  _140
REMARK   57  A    between atoms: _140  and  _141
REMARK   58  A    between atoms: _146  and  _147
REMARK   59  A    between atoms: _149  and  _151
REMARK   60  A    between atoms: _151  and  _152
REMARK   61  A    between atoms: _151  and  _154
REMARK   62  A    between atoms: _154  and  _155
REMARK   63  A    between atoms: _155  and  _156
REMARK   64  A    between atoms: _158  and  _160
REMARK   65  A    between atoms: _160  and  _161
REMARK   66  A    between atoms: _160  and  _163
REMARK   67  A    between atoms: _163  and  _164
REMARK   68  A    between atoms: _167  and  _169
REMARK   69  A    between atoms: _169  and  _170
REMARK   70  A    between atoms: _169  and  _172
REMARK   71  A    between atoms: _172  and  _173
REMARK   72  A    between atoms: _176  and  _178
REMARK   73  A    between atoms: _178  and  _179
REMARK   74  A    between atoms: _178  and  _181
REMARK   75  A    between atoms: _181  and  _182
REMARK   76  A    between atoms: _182  and  _183
REMARK   77  A    between atoms: _185  and  _187
REMARK   78  A    between atoms: _187  and  _188
REMARK   79  A    between atoms: _187  and  _190
REMARK   80  A    between atoms: _193  and  _195
REMARK   81  A    between atoms: _195  and  _196
REMARK   82  A    between atoms: _195  and  _198
REMARK   83  A    between atoms: _198  and  _199
REMARK   84  A    between atoms: _202  and  _204
REMARK   85  A    between atoms: _204  and  _205
REMARK   86  A    between atoms: _204  and  _207
REMARK   87  A    between atoms: _207  and  _208
REMARK   88  A    between atoms: _211  and  _213
REMARK   89  A    between atoms: _213  and  _214
REMARK   90  A    between atoms: _213  and  _216
REMARK   91  A    between atoms: _216  and  _217
REMARK   92  A    between atoms: _219  and  _221
REMARK   93  A    between atoms: _221  and  _222
REMARK   94  A    between atoms: _221  and  _224
REMARK   95  A    between atoms: _224  and  _225
REMARK   96  A    between atoms: _225  and  _226
REMARK   97  A    between atoms: _229  and  _231
REMARK   98  A    between atoms: _231  and  _232
REMARK   99  A    between atoms: _231  and  _234
REMARK  100  A    between atoms: _234  and  _235
REMARK  101  A    between atoms: _235  and  _236
REMARK  102  A    between atoms: _238  and  _240
REMARK  103  A    between atoms: _240  and  _241
REMARK  104  A    between atoms: _240  and  _243
REMARK  105  A    between atoms: _243  and  _244
REMARK  106  A    between atoms: _247  and  _249
REMARK  107  A    between atoms: _249  and  _250
REMARK  108  A    between atoms: _249  and  _252
REMARK  109  A    between atoms: _252  and  _253
REMARK  110  A    between atoms: _259  and  _261
REMARK  111  A    between atoms: _261  and  _262
REMARK  112  A    between atoms: _261  and  _264
REMARK  113  A    between atoms: _264  and  _265
REMARK  114  A    between atoms: _265  and  _266
REMARK  115  A    between atoms: _268  and  _270
REMARK  116  A    between atoms: _270  and  _271
REMARK  117  A    between atoms: _270  and  _273
REMARK  118  A    between atoms: _273  and  _274
REMARK  119  A    between atoms: _274  and  _275
REMARK  120  A    between atoms: _275  and  _276
REMARK  121  A    between atoms: _276  and  _277
REMARK  122  A    between atoms: _281  and  _283
REMARK  123  A    between atoms: _283  and  _284
REMARK  124  A    between atoms: _283  and  _286
REMARK  125  A    between atoms: _286  and  _287
REMARK  126  A    between atoms: _293  and  _295
REMARK  127  A    between atoms: _295  and  _296
REMARK  128  A    between atoms: _295  and  _298
REMARK  129  A    between atoms: _298  and  _299
REMARK  130  A    between atoms: _302  and  _304
REMARK  131  A    between atoms: _304  and  _305
REMARK  132  A    between atoms: _304  and  _307
REMARK  133  A    between atoms: _307  and  _308
REMARK  134  A    between atoms: _313  and  _315
REMARK  135  A    between atoms: _315  and  _316
REMARK  136  A    between atoms: _315  and  _318
REMARK  137  A    between atoms: _318  and  _319
REMARK  138  A    between atoms: _322  and  _324
REMARK  139  A    between atoms: _324  and  _325
REMARK  140  A    between atoms: _324  and  _327
REMARK  141  A    between atoms: _327  and  _328
REMARK  142  A    between atoms: _331  and  _333
REMARK  143  A    between atoms: _333  and  _334
REMARK  144  A    between atoms: _333  and  _336
REMARK  145  A    between atoms: _336  and  _337
REMARK  146  A    between atoms: _342  and  _343
REMARK                            x       y       z     vdW  Elec       q    Type
REMARK                         _______ _______ _______ _____ _____    ______ ____
ROOT
ATOM      1  CA  LEU A   1      16.819  68.931  24.931  0.00  0.00    +0.133 C 
ENDROOT
BRANCH   1   2
ATOM      2  N   LEU A   1      15.794  69.916  25.250  0.00  0.00    -0.239 NA
ATOM      3  H   LEU A   1      15.693  70.754  24.642  0.00  0.00    +0.142 HD
ENDBRANCH   1   2
BRANCH   1   4
ATOM      4  C   LEU A   1      17.923  68.975  25.980  0.00  0.00    +0.224 C 
ATOM      5  O   LEU A   1      18.494  67.950  26.355  0.00  0.00    -0.287 OA
ENDBRANCH   1   4
BRANCH   1   6
ATOM      6  CB  LEU A   1      17.396  69.212  23.542  0.00  0.00    +0.025 C 
BRANCH   6   7
ATOM      7  CG  LEU A   1      16.877  68.422  22.331  0.00  0.00    +0.002 C 
ATOM      8  CD2 LEU A   1      15.393  68.118  22.439  0.00  0.00    +0.000 C 
ATOM      9  CD1 LEU A   1      17.167  69.229  21.080  0.00  0.00    +0.000 C 
ENDBRANCH   6   7
ENDBRANCH   1   6
TORSDOF 4
REMARK  Name = ../refined-set-2016/3adv/3adv_pocket.pdb
REMARK  146 active torsions:
REMARK  status: ('A' for Active; 'I' for Inactive)
REMARK    1  A    between atoms: _1  and  _3
REMARK    2  A    between atoms: _3  and  _4
REMARK    3  A    between atoms: _3  and  _6
REMARK    4  A    between atoms: _6  and  _7
REMARK    5  A    between atoms: _10  and  _12
REMARK    6  A    between atoms: _12  and  _13
REMARK    7  A    between atoms: _12  and  _15
REMARK    8  A    between atoms: _15  and  _16
REMARK    9  A    between atoms: _22  and  _24
REMARK   10  A    between atoms: _24  and  _25
REMARK   11  A    between atoms: _27  and  _29
REMARK   12  A    between atoms: _29  and  _30
REMARK   13  A    between atoms: _29  and  _32
REMARK   14  A    between atoms: _34  and  _36
REMARK   15  A    between atoms: _36  and  _37
REMARK   16  A    between atoms: _36  and  _39
REMARK   17  A    between atoms: _39  and  _40
REMARK   18  A    between atoms: _40  and  _41
REMARK   19  A    between atoms: _46  and  _48
REMARK   20  A    between atoms: _48  and  _49
REMARK   21  A    between atoms: _48  and  _51
REMARK   22  A    between atoms: _51  and  _52
REMARK   23  A    between atoms: _58  and  _60
REMARK   24  A    between atoms: _60  and  _61
REMARK   25  A    between atoms: _60  and  _63
REMARK   26  A    between atoms: _63  and  _64
REMARK   27  A    between atoms: _64  and  _65
REMARK   28  A    between atoms: _65  and  _66
REMARK   29  A    between atoms: _75  and  _77
REMARK   30  A    between atoms: _77  and  _78
REMARK   31  A    between atoms: _77  and  _80
REMARK   32  A    between atoms: _80  and  _81
REMARK   33  A    between atoms: _83  and  _85
REMARK   34  A    between atoms: _85  and  _86
REMARK   35  A    between atoms: _85  and  _88
REMARK   36  A    between atoms: _91  and  _93
REMARK   37  A    between atoms: _93  and  _94
REMARK   38  A    between atoms: _93  and  _96
REMARK   39  A    between atoms: _96  and  _97
REMARK   40  A    between atoms: _97  and  _98
REMARK   41  A    between atoms: _101  and  _103
REMARK   42  A    between atoms: _103  and  _104
REMARK   43  A    between atoms: _107  and  _109
REMARK   44  A    between atoms: _109  and  _110
REMARK   45  A    between atoms: _109  and  _112
REMARK   46  A    between atoms: _115  and  _117
REMARK   47  A    between atoms: _117  and  _118
REMARK   48  A    between atoms: _117  and  _120
REMARK   49  A    between atoms: _120  and  _121
REMARK   50  A    between atoms: _126  and  _128
REMARK   51  A    between atoms: _128  and  _129
REMARK   52  A    between atoms: _128  and  _131
REMARK   53  A    between atoms: _131  and  _132
REMARK   54  A    between atoms: _135  and  _137
REMARK   55  A    between atoms: _137  and  _138
REMARK   56  A    between atoms: _137  and  _140
REMARK   57  A    between atoms: _140  and  _141
REMARK   58  A    between atoms: _146  and  _147
REMARK   59  A    between atoms: _149  and  _151
REMARK   60  A    between atoms: _151  and  _152
REMARK   61  A    between atoms: _151  and  _154
REMARK   62  A    between atoms: _154  and  _155
REMARK   63  A    between atoms: _155  and  _156
REMARK   64  A    between atoms: _158  and  _160
REMARK   65  A    between atoms: _160  and  _161
REMARK   66  A    between atoms: _160  and  _163
REMARK   67  A    between atoms: _163  and  _164
REMARK   68  A    between atoms: _167  and  _169
REMARK   69  A    between atoms: _169  and  _170
REMARK   70  A    between atoms: _169  and  _172
REMARK   71  A    between atoms: _172  and  _173
REMARK   72  A    between atoms: _176  and  _178
REMARK   73  A    between atoms: _178  and  _179
REMARK   74  A    between atoms: _178  and  _181
REMARK   75  A    between atoms: _181  and  _182
REMARK   76  A    between atoms: _182  and  _183
REMARK   77  A    between atoms: _185  and  _187
REMARK   78  A    between atoms: _187  and  _188
REMARK   79  A    between atoms: _187  and  _190
REMARK   80  A    between atoms: _193  and  _195
REMARK   81  A    between atoms: _195  and  _196
REMARK   82  A    between atoms: _195  and  _198
REMARK   83  A    between atoms: _198  and  _199
REMARK   84  A    between atoms: _202  and  _204
REMARK   85  A    between atoms: _204  and  _205
REMARK   86  A    between atoms: _204  and  _207
REMARK   87  A    between atoms: _207  and  _208
REMARK   88  A    between atoms: _211  and  _213
REMARK   89  A    between atoms: _213  and  _214
REMARK   90  A    between atoms: _213  and  _216
REMARK   91  A    between atoms: _216  and  _217
REMARK   92  A    between atoms: _219  and  _221
REMARK   93  A    between atoms: _221  and  _222
REMARK   94  A    between atoms: _221  and  _224
REMARK   95  A    between atoms: _224  and  _225
REMARK   96  A    between atoms: _225  and  _226
REMARK   97  A    between atoms: _229  and  _231
REMARK   98  A    between atoms: _231  and  _232
REMARK   99  A    between atoms: _231  and  _234
REMARK  100  A    between atoms: _234  and  _235
REMARK  101  A    between atoms: _235  and  _236
REMARK  102  A    between atoms: _238  and  _240
REMARK  103  A    between atoms: _240  and  _241
REMARK  104  A    between atoms: _240  and  _243
REMARK  105  A    between atoms: _243  and  _244
REMARK  106  A    between atoms: _247  and  _249
REMARK  107  A    between atoms: _249  and  _250
REMARK  108  A    between atoms: _249  and  _252
REMARK  109  A    between atoms: _252  and  _253
REMARK  110  A    between atoms: _259  and  _261
REMARK  111  A    between atoms: _261  and  _262
REMARK  112  A    between atoms: _261  and  _264
REMARK  113  A    between atoms: _264  and  _265
REMARK  114  A    between atoms: _265  and  _266
REMARK  115  A    between atoms: _268  and  _270
REMARK  116  A    between atoms: _270  and  _271
REMARK  117  A    between atoms: _270  and  _273
REMARK  118  A    between atoms: _273  and  _274
REMARK  119  A    between atoms: _274  and  _275
REMARK  120  A    between atoms: _275  and  _276
REMARK  121  A    between atoms: _276  and  _277
REMARK  122  A    between atoms: _281  and  _283
REMARK  123  A    between atoms: _283  and  _284
REMARK  124  A    between atoms: _283  and  _286
REMARK  125  A    between atoms: _286  and  _287
REMARK  126  A    between atoms: _293  and  _295
REMARK  127  A    between atoms: _295  and  _296
REMARK  128  A    between atoms: _295  and  _298
REMARK  129  A    between atoms: _298  and  _299
REMARK  130  A    between atoms: _302  and  _304
REMARK  131  A    between atoms: _304  and  _305
REMARK  132  A    between atoms: _304  and  _307
REMARK  133  A    between atoms: _307  and  _308
REMARK  134  A    between atoms: _313  and  _315
REMARK  135  A    between atoms: _315  and  _316
REMARK  136  A    between atoms: _315  and  _318
REMARK  137  A    between atoms: _318  and  _319
REMARK  138  A    between atoms: _322  and  _324
REMARK  139  A    between atoms: _324  and  _325
REMARK  140  A    between atoms: _324  and  _327
REMARK  141  A    between atoms: _327  and  _328
REMARK  142  A    between atoms: _331  and  _333
REMARK  143  A    between atoms: _333  and  _334
REMARK  144  A    between atoms: _333  and  _336
REMARK  145  A    between atoms: _336  and  _337
REMARK  146  A    between atoms: _342  and  _343
REMARK                            x       y       z     vdW  Elec       q    Type
REMARK                         _______ _______ _______ _____ _____    ______ ____
ROOT
ATOM      1  CG  TYR A   1      21.182  66.360  26.051  0.00  0.00    -0.020 A 
ATOM      2  CD2 TYR A   1      20.302  65.434  25.484  0.00  0.00    -0.001 A 
ATOM      3  CE2 TYR A   1      20.000  65.466  24.121  0.00  0.00    +0.036 A 
ATOM      4  CZ  TYR A   1      20.582  66.433  23.315  0.00  0.00    +0.134 A 
ATOM      5  CE1 TYR A   1      21.459  67.359  23.856  0.00  0.00    +0.036 A 
ATOM      6  CD1 TYR A   1      21.754  67.317  25.218  0.00  0.00    -0.001 A 
ENDROOT
BRANCH   4   7
ATOM      7  OH  TYR A   1      20.284  66.494  21.973  0.00  0.00    -0.506 OA
ATOM      8  HH  TYR A   1      19.312  66.645  21.858  0.00  0.00    +0.292 HD
ENDBRANCH   4   7
BRANCH   1   9
ATOM      9  CB  TYR A   1      21.512  66.333  27.530  0.00  0.00    +0.051 C 
BRANCH   9  10
ATOM     10  CA  TYR A   1      20.656  65.391  28.384  0.00  0.00    +0.137 C 
BRANCH  10  11
ATOM     11  N   TYR A   1      19.259  65.835  28.389  0.00  0.00    -0.239 NA
ATOM     12  H   TYR A   1      19.019  66.755  27.967  0.00  0.00    +0.142 HD
ENDBRANCH  10  11
BRANCH  10  13
ATOM     13  C   TYR A   1      21.251  65.336  29.795  0.00  0.00    +0.224 C 
ATOM     14  O   TYR A   1      22.190  64.583  30.054  0.00  0.00    -0.287 OA
ENDBRANCH  10  13
ENDBRANCH   9  10
ENDBRANCH   1   9
TORSDOF 5
REMARK  Name = ../refined-set-2016/3adv/3adv_pocket.pdb
REMARK  146 active torsions:
REMARK  status: ('A' for Active; 'I' for Inactive)
REMARK    1  A    between atoms: _1  and  _3
REMARK    2  A    between atoms: _3  and  _4
REMARK    3  A    between atoms: _3  and  _6
REMARK    4  A    between atoms: _6  and  _7
REMARK    5  A    between atoms: _10  and  _12
REMARK    6  A    between atoms: _12  and  _13
REMARK    7  A    between atoms: _12  and  _15
REMARK    8  A    between atoms: _15  and  _16
REMARK    9  A    between atoms: _22  and  _24
REMARK   10  A    between atoms: _24  and  _25
REMARK   11  A    between atoms: _27  and  _29
REMARK   12  A    between atoms: _29  and  _30
REMARK   13  A    between atoms: _29  and  _32
REMARK   14  A    between atoms: _34  and  _36
REMARK   15  A    between atoms: _36  and  _37
REMARK   16  A    between atoms: _36  and  _39
REMARK   17  A    between atoms: _39  and  _40
REMARK   18  A    between atoms: _40  and  _41
REMARK   19  A    between atoms: _46  and  _48
REMARK   20  A    between atoms: _48  and  _49
REMARK   21  A    between atoms: _48  and  _51
REMARK   22  A    between atoms: _51  and  _52
REMARK   23  A    between atoms: _58  and  _60
REMARK   24  A    between atoms: _60  and  _61
REMARK   25  A    between atoms: _60  and  _63
REMARK   26  A    between atoms: _63  and  _64
REMARK   27  A    between atoms: _64  and  _65
REMARK   28  A    between atoms: _65  and  _66
REMARK   29  A    between atoms: _75  and  _77
REMARK   30  A    between atoms: _77  and  _78
REMARK   31  A    between atoms: _77  and  _80
REMARK   32  A    between atoms: _80  and  _81
REMARK   33  A    between atoms: _83  and  _85
REMARK   34  A    between atoms: _85  and  _86
REMARK   35  A    between atoms: _85  and  _88
REMARK   36  A    between atoms: _91  and  _93
REMARK   37  A    between atoms: _93  and  _94
REMARK   38  A    between atoms: _93  and  _96
REMARK   39  A    between atoms: _96  and  _97
REMARK   40  A    between atoms: _97  and  _98
REMARK   41  A    between atoms: _101  and  _103
REMARK   42  A    between atoms: _103  and  _104
REMARK   43  A    between atoms: _107  and  _109
REMARK   44  A    between atoms: _109  and  _110
REMARK   45  A    between atoms: _109  and  _112
REMARK   46  A    between atoms: _115  and  _117
REMARK   47  A    between atoms: _117  and  _118
REMARK   48  A    between atoms: _117  and  _120
REMARK   49  A    between atoms: _120  and  _121
REMARK   50  A    between atoms: _126  and  _128
REMARK   51  A    between atoms: _128  and  _129
REMARK   52  A    between atoms: _128  and  _131
REMARK   53  A    between atoms: _131  and  _132
REMARK   54  A    between atoms: _135  and  _137
REMARK   55  A    between atoms: _137  and  _138
REMARK   56  A    between atoms: _137  and  _140
REMARK   57  A    between atoms: _140  and  _141
REMARK   58  A    between atoms: _146  and  _147
REMARK   59  A    between atoms: _149  and  _151
REMARK   60  A    between atoms: _151  and  _152
REMARK   61  A    between atoms: _151  and  _154
REMARK   62  A    between atoms: _154  and  _155
REMARK   63  A    between atoms: _155  and  _156
REMARK   64  A    between atoms: _158  and  _160
REMARK   65  A    between atoms: _160  and  _161
REMARK   66  A    between atoms: _160  and  _163
REMARK   67  A    between atoms: _163  and  _164
REMARK   68  A    between atoms: _167  and  _169
REMARK   69  A    between atoms: _169  and  _170
REMARK   70  A    between atoms: _169  and  _172
REMARK   71  A    between atoms: _172  and  _173
REMARK   72  A    between atoms: _176  and  _178
REMARK   73  A    between atoms: _178  and  _179
REMARK   74  A    between atoms: _178  and  _181
REMARK   75  A    between atoms: _181  and  _182
REMARK   76  A    between atoms: _182  and  _183
REMARK   77  A    between atoms: _185  and  _187
REMARK   78  A    between atoms: _187  and  _188
REMARK   79  A    between atoms: _187  and  _190
REMARK   80  A    between atoms: _193  and  _195
REMARK   81  A    between atoms: _195  and  _196
REMARK   82  A    between atoms: _195  and  _198
REMARK   83  A    between atoms: _198  and  _199
REMARK   84  A    between atoms: _202  and  _204
REMARK   85  A    between atoms: _204  and  _205
REMARK   86  A    between atoms: _204  and  _207
REMARK   87  A    between atoms: _207  and  _208
REMARK   88  A    between atoms: _211  and  _213
REMARK   89  A    between atoms: _213  and  _214
REMARK   90  A    between atoms: _213  and  _216
REMARK   91  A    between atoms: _216  and  _217
REMARK   92  A    between atoms: _219  and  _221
REMARK   93  A    between atoms: _221  and  _222
REMARK   94  A    between atoms: _221  and  _224
REMARK   95  A    between atoms: _224  and  _225
REMARK   96  A    between atoms: _225  and  _226
REMARK   97  A    between atoms: _229  and  _231
REMARK   98  A    between atoms: _231  and  _232
REMARK   99  A    between atoms: _231  and  _234
REMARK  100  A    between atoms: _234  and  _235
REMARK  101  A    between atoms: _235  and  _236
REMARK  102  A    between atoms: _238  and  _240
REMARK  103  A    between atoms: _240  and  _241
REMARK  104  A    between atoms: _240  and  _243
REMARK  105  A    between atoms: _243  and  _244
REMARK  106  A    between atoms: _247  and  _249
REMARK  107  A    between atoms: _249  and  _250
REMARK  108  A    between atoms: _249  and  _252
REMARK  109  A    between atoms: _252  and  _253
REMARK  110  A    between atoms: _259  and  _261
REMARK  111  A    between atoms: _261  and  _262
REMARK  112  A    between atoms: _261  and  _264
REMARK  113  A    between atoms: _264  and  _265
REMARK  114  A    between atoms: _265  and  _266
REMARK  115  A    between atoms: _268  and  _270
REMARK  116  A    between atoms: _270  and  _271
REMARK  117  A    between atoms: _270  and  _273
REMARK  118  A    between atoms: _273  and  _274
REMARK  119  A    between atoms: _274  and  _275
REMARK  120  A    between atoms: _275  and  _276
REMARK  121  A    between atoms: _276  and  _277
REMARK  122  A    between atoms: _281  and  _283
REMARK  123  A    between atoms: _283  and  _284
REMARK  124  A    between atoms: _283  and  _286
REMARK  125  A    between atoms: _286  and  _287
REMARK  126  A    between atoms: _293  and  _295
REMARK  127  A    between atoms: _295  and  _296
REMARK  128  A    between atoms: _295  and  _298
REMARK  129  A    between atoms: _298  and  _299
REMARK  130  A    between atoms: _302  and  _304
REMARK  131  A    between atoms: _304  and  _305
REMARK  132  A    between atoms: _304  and  _307
REMARK  133  A    between atoms: _307  and  _308
REMARK  134  A    between atoms: _313  and  _315
REMARK  135  A    between atoms: _315  and  _316
REMARK  136  A    between atoms: _315  and  _318
REMARK  137  A    between atoms: _318  and  _319
REMARK  138  A    between atoms: _322  and  _324
REMARK  139  A    between atoms: _324  and  _325
REMARK  140  A    between atoms: _324  and  _327
REMARK  141  A    between atoms: _327  and  _328
REMARK  142  A    between atoms: _331  and  _333
REMARK  143  A    between atoms: _333  and  _334
REMARK  144  A    between atoms: _333  and  _336
REMARK  145  A    between atoms: _336  and  _337
REMARK  146  A    between atoms: _342  and  _343
REMARK                            x       y       z     vdW  Elec       q    Type
REMARK                         _______ _______ _______ _____ _____    ______ ____
ROOT
ATOM      1  O   HOH     1      18.622  65.619  20.268  0.00  0.00    +0.000 OA
ENDROOT
TORSDOF 0
REMARK  Name = ../refined-set-2016/3adv/3adv_pocket.pdb
REMARK  146 active torsions:
REMARK  status: ('A' for Active; 'I' for Inactive)
REMARK    1  A    between atoms: _1  and  _3
REMARK    2  A    between atoms: _3  and  _4
REMARK    3  A    between atoms: _3  and  _6
REMARK    4  A    between atoms: _6  and  _7
REMARK    5  A    between atoms: _10  and  _12
REMARK    6  A    between atoms: _12  and  _13
REMARK    7  A    between atoms: _12  and  _15
REMARK    8  A    between atoms: _15  and  _16
REMARK    9  A    between atoms: _22  and  _24
REMARK   10  A    between atoms: _24  and  _25
REMARK   11  A    between atoms: _27  and  _29
REMARK   12  A    between atoms: _29  and  _30
REMARK   13  A    between atoms: _29  and  _32
REMARK   14  A    between atoms: _34  and  _36
REMARK   15  A    between atoms: _36  and  _37
REMARK   16  A    between atoms: _36  and  _39
REMARK   17  A    between atoms: _39  and  _40
REMARK   18  A    between atoms: _40  and  _41
REMARK   19  A    between atoms: _46  and  _48
REMARK   20  A    between atoms: _48  and  _49
REMARK   21  A    between atoms: _48  and  _51
REMARK   22  A    between atoms: _51  and  _52
REMARK   23  A    between atoms: _58  and  _60
REMARK   24  A    between atoms: _60  and  _61
REMARK   25  A    between atoms: _60  and  _63
REMARK   26  A    between atoms: _63  and  _64
REMARK   27  A    between atoms: _64  and  _65
REMARK   28  A    between atoms: _65  and  _66
REMARK   29  A    between atoms: _75  and  _77
REMARK   30  A    between atoms: _77  and  _78
REMARK   31  A    between atoms: _77  and  _80
REMARK   32  A    between atoms: _80  and  _81
REMARK   33  A    between atoms: _83  and  _85
REMARK   34  A    between atoms: _85  and  _86
REMARK   35  A    between atoms: _85  and  _88
REMARK   36  A    between atoms: _91  and  _93
REMARK   37  A    between atoms: _93  and  _94
REMARK   38  A    between atoms: _93  and  _96
REMARK   39  A    between atoms: _96  and  _97
REMARK   40  A    between atoms: _97  and  _98
REMARK   41  A    between atoms: _101  and  _103
REMARK   42  A    between atoms: _103  and  _104
REMARK   43  A    between atoms: _107  and  _109
REMARK   44  A    between atoms: _109  and  _110
REMARK   45  A    between atoms: _109  and  _112
REMARK   46  A    between atoms: _115  and  _117
REMARK   47  A    between atoms: _117  and  _118
REMARK   48  A    between atoms: _117  and  _120
REMARK   49  A    between atoms: _120  and  _121
REMARK   50  A    between atoms: _126  and  _128
REMARK   51  A    between atoms: _128  and  _129
REMARK   52  A    between atoms: _128  and  _131
REMARK   53  A    between atoms: _131  and  _132
REMARK   54  A    between atoms: _135  and  _137
REMARK   55  A    between atoms: _137  and  _138
REMARK   56  A    between atoms: _137  and  _140
REMARK   57  A    between atoms: _140  and  _141
REMARK   58  A    between atoms: _146  and  _147
REMARK   59  A    between atoms: _149  and  _151
REMARK   60  A    between atoms: _151  and  _152
REMARK   61  A    between atoms: _151  and  _154
REMARK   62  A    between atoms: _154  and  _155
REMARK   63  A    between atoms: _155  and  _156
REMARK   64  A    between atoms: _158  and  _160
REMARK   65  A    between atoms: _160  and  _161
REMARK   66  A    between atoms: _160  and  _163
REMARK   67  A    between atoms: _163  and  _164
REMARK   68  A    between atoms: _167  and  _169
REMARK   69  A    between atoms: _169  and  _170
REMARK   70  A    between atoms: _169  and  _172
REMARK   71  A    between atoms: _172  and  _173
REMARK   72  A    between atoms: _176  and  _178
REMARK   73  A    between atoms: _178  and  _179
REMARK   74  A    between atoms: _178  and  _181
REMARK   75  A    between atoms: _181  and  _182
REMARK   76  A    between atoms: _182  and  _183
REMARK   77  A    between atoms: _185  and  _187
REMARK   78  A    between atoms: _187  and  _188
REMARK   79  A    between atoms: _187  and  _190
REMARK   80  A    between atoms: _193  and  _195
REMARK   81  A    between atoms: _195  and  _196
REMARK   82  A    between atoms: _195  and  _198
REMARK   83  A    between atoms: _198  and  _199
REMARK   84  A    between atoms: _202  and  _204
REMARK   85  A    between atoms: _204  and  _205
REMARK   86  A    between atoms: _204  and  _207
REMARK   87  A    between atoms: _207  and  _208
REMARK   88  A    between atoms: _211  and  _213
REMARK   89  A    between atoms: _213  and  _214
REMARK   90  A    between atoms: _213  and  _216
REMARK   91  A    between atoms: _216  and  _217
REMARK   92  A    between atoms: _219  and  _221
REMARK   93  A    between atoms: _221  and  _222
REMARK   94  A    between atoms: _221  and  _224
REMARK   95  A    between atoms: _224  and  _225
REMARK   96  A    between atoms: _225  and  _226
REMARK   97  A    between atoms: _229  and  _231
REMARK   98  A    between atoms: _231  and  _232
REMARK   99  A    between atoms: _231  and  _234
REMARK  100  A    between atoms: _234  and  _235
REMARK  101  A    between atoms: _235  and  _236
REMARK  102  A    between atoms: _238  and  _240
REMARK  103  A    between atoms: _240  and  _241
REMARK  104  A    between atoms: _240  and  _243
REMARK  105  A    between atoms: _243  and  _244
REMARK  106  A    between atoms: _247  and  _249
REMARK  107  A    between atoms: _249  and  _250
REMARK  108  A    between atoms: _249  and  _252
REMARK  109  A    between atoms: _252  and  _253
REMARK  110  A    between atoms: _259  and  _261
REMARK  111  A    between atoms: _261  and  _262
REMARK  112  A    between atoms: _261  and  _264
REMARK  113  A    between atoms: _264  and  _265
REMARK  114  A    between atoms: _265  and  _266
REMARK  115  A    between atoms: _268  and  _270
REMARK  116  A    between atoms: _270  and  _271
REMARK  117  A    between atoms: _270  and  _273
REMARK  118  A    between atoms: _273  and  _274
REMARK  119  A    between atoms: _274  and  _275
REMARK  120  A    between atoms: _275  and  _276
REMARK  121  A    between atoms: _276  and  _277
REMARK  122  A    between atoms: _281  and  _283
REMARK  123  A    between atoms: _283  and  _284
REMARK  124  A    between atoms: _283  and  _286
REMARK  125  A    between atoms: _286  and  _287
REMARK  126  A    between atoms: _293  and  _295
REMARK  127  A    between atoms: _295  and  _296
REMARK  128  A    between atoms: _295  and  _298
REMARK  129  A    between atoms: _298  and  _299
REMARK  130  A    between atoms: _302  and  _304
REMARK  131  A    between atoms: _304  and  _305
REMARK  132  A    between atoms: _304  and  _307
REMARK  133  A    between atoms: _307  and  _308
REMARK  134  A    between atoms: _313  and  _315
REMARK  135  A    between atoms: _315  and  _316
REMARK  136  A    between atoms: _315  and  _318
REMARK  137  A    between atoms: _318  and  _319
REMARK  138  A    between atoms: _322  and  _324
REMARK  139  A    between atoms: _324  and  _325
REMARK  140  A    between atoms: _324  and  _327
REMARK  141  A    between atoms: _327  and  _328
REMARK  142  A    between atoms: _331  and  _333
REMARK  143  A    between atoms: _333  and  _334
REMARK  144  A    between atoms: _333  and  _336
REMARK  145  A    between atoms: _336  and  _337
REMARK  146  A    between atoms: _342  and  _343
REMARK                            x       y       z     vdW  Elec       q    Type
REMARK                         _______ _______ _______ _____ _____    ______ ____
ROOT
ATOM      1  O   HOH     1      18.099  55.722  13.521  0.00  0.00    +0.000 OA
ENDROOT
TORSDOF 0
REMARK  Name = ../refined-set-2016/3adv/3adv_pocket.pdb
REMARK  146 active torsions:
REMARK  status: ('A' for Active; 'I' for Inactive)
REMARK    1  A    between atoms: _1  and  _3
REMARK    2  A    between atoms: _3  and  _4
REMARK    3  A    between atoms: _3  and  _6
REMARK    4  A    between atoms: _6  and  _7
REMARK    5  A    between atoms: _10  and  _12
REMARK    6  A    between atoms: _12  and  _13
REMARK    7  A    between atoms: _12  and  _15
REMARK    8  A    between atoms: _15  and  _16
REMARK    9  A    between atoms: _22  and  _24
REMARK   10  A    between atoms: _24  and  _25
REMARK   11  A    between atoms: _27  and  _29
REMARK   12  A    between atoms: _29  and  _30
REMARK   13  A    between atoms: _29  and  _32
REMARK   14  A    between atoms: _34  and  _36
REMARK   15  A    between atoms: _36  and  _37
REMARK   16  A    between atoms: _36  and  _39
REMARK   17  A    between atoms: _39  and  _40
REMARK   18  A    between atoms: _40  and  _41
REMARK   19  A    between atoms: _46  and  _48
REMARK   20  A    between atoms: _48  and  _49
REMARK   21  A    between atoms: _48  and  _51
REMARK   22  A    between atoms: _51  and  _52
REMARK   23  A    between atoms: _58  and  _60
REMARK   24  A    between atoms: _60  and  _61
REMARK   25  A    between atoms: _60  and  _63
REMARK   26  A    between atoms: _63  and  _64
REMARK   27  A    between atoms: _64  and  _65
REMARK   28  A    between atoms: _65  and  _66
REMARK   29  A    between atoms: _75  and  _77
REMARK   30  A    between atoms: _77  and  _78
REMARK   31  A    between atoms: _77  and  _80
REMARK   32  A    between atoms: _80  and  _81
REMARK   33  A    between atoms: _83  and  _85
REMARK   34  A    between atoms: _85  and  _86
REMARK   35  A    between atoms: _85  and  _88
REMARK   36  A    between atoms: _91  and  _93
REMARK   37  A    between atoms: _93  and  _94
REMARK   38  A    between atoms: _93  and  _96
REMARK   39  A    between atoms: _96  and  _97
REMARK   40  A    between atoms: _97  and  _98
REMARK   41  A    between atoms: _101  and  _103
REMARK   42  A    between atoms: _103  and  _104
REMARK   43  A    between atoms: _107  and  _109
REMARK   44  A    between atoms: _109  and  _110
REMARK   45  A    between atoms: _109  and  _112
REMARK   46  A    between atoms: _115  and  _117
REMARK   47  A    between atoms: _117  and  _118
REMARK   48  A    between atoms: _117  and  _120
REMARK   49  A    between atoms: _120  and  _121
REMARK   50  A    between atoms: _126  and  _128
REMARK   51  A    between atoms: _128  and  _129
REMARK   52  A    between atoms: _128  and  _131
REMARK   53  A    between atoms: _131  and  _132
REMARK   54  A    between atoms: _135  and  _137
REMARK   55  A    between atoms: _137  and  _138
REMARK   56  A    between atoms: _137  and  _140
REMARK   57  A    between atoms: _140  and  _141
REMARK   58  A    between atoms: _146  and  _147
REMARK   59  A    between atoms: _149  and  _151
REMARK   60  A    between atoms: _151  and  _152
REMARK   61  A    between atoms: _151  and  _154
REMARK   62  A    between atoms: _154  and  _155
REMARK   63  A    between atoms: _155  and  _156
REMARK   64  A    between atoms: _158  and  _160
REMARK   65  A    between atoms: _160  and  _161
REMARK   66  A    between atoms: _160  and  _163
REMARK   67  A    between atoms: _163  and  _164
REMARK   68  A    between atoms: _167  and  _169
REMARK   69  A    between atoms: _169  and  _170
REMARK   70  A    between atoms: _169  and  _172
REMARK   71  A    between atoms: _172  and  _173
REMARK   72  A    between atoms: _176  and  _178
REMARK   73  A    between atoms: _178  and  _179
REMARK   74  A    between atoms: _178  and  _181
REMARK   75  A    between atoms: _181  and  _182
REMARK   76  A    between atoms: _182  and  _183
REMARK   77  A    between atoms: _185  and  _187
REMARK   78  A    between atoms: _187  and  _188
REMARK   79  A    between atoms: _187  and  _190
REMARK   80  A    between atoms: _193  and  _195
REMARK   81  A    between atoms: _195  and  _196
REMARK   82  A    between atoms: _195  and  _198
REMARK   83  A    between atoms: _198  and  _199
REMARK   84  A    between atoms: _202  and  _204
REMARK   85  A    between atoms: _204  and  _205
REMARK   86  A    between atoms: _204  and  _207
REMARK   87  A    between atoms: _207  and  _208
REMARK   88  A    between atoms: _211  and  _213
REMARK   89  A    between atoms: _213  and  _214
REMARK   90  A    between atoms: _213  and  _216
REMARK   91  A    between atoms: _216  and  _217
REMARK   92  A    between atoms: _219  and  _221
REMARK   93  A    between atoms: _221  and  _222
REMARK   94  A    between atoms: _221  and  _224
REMARK   95  A    between atoms: _224  and  _225
REMARK   96  A    between atoms: _225  and  _226
REMARK   97  A    between atoms: _229  and  _231
REMARK   98  A    between atoms: _231  and  _232
REMARK   99  A    between atoms: _231  and  _234
REMARK  100  A    between atoms: _234  and  _235
REMARK  101  A    between atoms: _235  and  _236
REMARK  102  A    between atoms: _238  and  _240
REMARK  103  A    between atoms: _240  and  _241
REMARK  104  A    between atoms: _240  and  _243
REMARK  105  A    between atoms: _243  and  _244
REMARK  106  A    between atoms: _247  and  _249
REMARK  107  A    between atoms: _249  and  _250
REMARK  108  A    between atoms: _249  and  _252
REMARK  109  A    between atoms: _252  and  _253
REMARK  110  A    between atoms: _259  and  _261
REMARK  111  A    between atoms: _261  and  _262
REMARK  112  A    between atoms: _261  and  _264
REMARK  113  A    between atoms: _264  and  _265
REMARK  114  A    between atoms: _265  and  _266
REMARK  115  A    between atoms: _268  and  _270
REMARK  116  A    between atoms: _270  and  _271
REMARK  117  A    between atoms: _270  and  _273
REMARK  118  A    between atoms: _273  and  _274
REMARK  119  A    between atoms: _274  and  _275
REMARK  120  A    between atoms: _275  and  _276
REMARK  121  A    between atoms: _276  and  _277
REMARK  122  A    between atoms: _281  and  _283
REMARK  123  A    between atoms: _283  and  _284
REMARK  124  A    between atoms: _283  and  _286
REMARK  125  A    between atoms: _286  and  _287
REMARK  126  A    between atoms: _293  and  _295
REMARK  127  A    between atoms: _295  and  _296
REMARK  128  A    between atoms: _295  and  _298
REMARK  129  A    between atoms: _298  and  _299
REMARK  130  A    between atoms: _302  and  _304
REMARK  131  A    between atoms: _304  and  _305
REMARK  132  A    between atoms: _304  and  _307
REMARK  133  A    between atoms: _307  and  _308
REMARK  134  A    between atoms: _313  and  _315
REMARK  135  A    between atoms: _315  and  _316
REMARK  136  A    between atoms: _315  and  _318
REMARK  137  A    between atoms: _318  and  _319
REMARK  138  A    between atoms: _322  and  _324
REMARK  139  A    between atoms: _324  and  _325
REMARK  140  A    between atoms: _324  and  _327
REMARK  141  A    between atoms: _327  and  _328
REMARK  142  A    between atoms: _331  and  _333
REMARK  143  A    between atoms: _333  and  _334
REMARK  144  A    between atoms: _333  and  _336
REMARK  145  A    between atoms: _336  and  _337
REMARK  146  A    between atoms: _342  and  _343
REMARK                            x       y       z     vdW  Elec       q    Type
REMARK                         _______ _______ _______ _____ _____    ______ ____
ROOT
ATOM      1  O   HOH     1      18.453  70.017   9.254  0.00  0.00    +0.000 OA
ENDROOT
TORSDOF 0
