REMARK  Name = ../refined-set-2016/4o2c/4o2c_pocket.pdb
REMARK  351 active torsions:
REMARK  status: ('A' for Active; 'I' for Inactive)
REMARK    1  A    between atoms: _1  and  _3
REMARK    2  A    between atoms: _3  and  _4
REMARK    3  A    between atoms: _3  and  _6
REMARK    4  A    between atoms: _6  and  _7
REMARK    5  A    between atoms: _7  and  _8
REMARK    6  A    between atoms: _10  and  _12
REMARK    7  A    between atoms: _12  and  _13
REMARK    8  A    between atoms: _12  and  _15
REMARK    9  A    between atoms: _15  and  _16
REMARK   10  A    between atoms: _16  and  _17
REMARK   11  A    between atoms: _17  and  _18
REMARK   12  A    between atoms: _27  and  _29
REMARK   13  A    between atoms: _29  and  _30
REMARK   14  A    between atoms: _29  and  _32
REMARK   15  A    between atoms: _32  and  _33
REMARK   16  A    between atoms: _38  and  _39
REMARK   17  A    between atoms: _41  and  _43
REMARK   18  A    between atoms: _43  and  _44
REMARK   19  A    between atoms: _43  and  _46
REMARK   20  A    between atoms: _46  and  _47
REMARK   21  A    between atoms: _53  and  _55
REMARK   22  A    between atoms: _55  and  _56
REMARK   23  A    between atoms: _55  and  _58
REMARK   24  A    between atoms: _58  and  _59
REMARK   25  A    between atoms: _64  and  _65
REMARK   26  A    between atoms: _67  and  _69
REMARK   27  A    between atoms: _69  and  _70
REMARK   28  A    between atoms: _69  and  _72
REMARK   29  A    between atoms: _72  and  _73
REMARK   30  A    between atoms: _79  and  _81
REMARK   31  A    between atoms: _81  and  _82
REMARK   32  A    between atoms: _81  and  _84
REMARK   33  A    between atoms: _84  and  _85
REMARK   34  A    between atoms: _88  and  _90
REMARK   35  A    between atoms: _90  and  _91
REMARK   36  A    between atoms: _90  and  _93
REMARK   37  A    between atoms: _93  and  _94
REMARK   38  A    between atoms: _96  and  _98
REMARK   39  A    between atoms: _98  and  _99
REMARK   40  A    between atoms: _98  and  _101
REMARK   41  A    between atoms: _104  and  _106
REMARK   42  A    between atoms: _106  and  _107
REMARK   43  A    between atoms: _109  and  _111
REMARK   44  A    between atoms: _111  and  _112
REMARK   45  A    between atoms: _111  and  _114
REMARK   46  A    between atoms: _114  and  _115
REMARK   47  A    between atoms: _121  and  _123
REMARK   48  A    between atoms: _123  and  _124
REMARK   49  A    between atoms: _123  and  _126
REMARK   50  A    between atoms: _129  and  _131
REMARK   51  A    between atoms: _131  and  _132
REMARK   52  A    between atoms: _131  and  _134
REMARK   53  A    between atoms: _134  and  _135
REMARK   54  A    between atoms: _135  and  _136
REMARK   55  A    between atoms: _136  and  _137
REMARK   56  A    between atoms: _146  and  _148
REMARK   57  A    between atoms: _148  and  _149
REMARK   58  A    between atoms: _148  and  _151
REMARK   59  A    between atoms: _151  and  _152
REMARK   60  A    between atoms: _158  and  _160
REMARK   61  A    between atoms: _160  and  _161
REMARK   62  A    between atoms: _160  and  _163
REMARK   63  A    between atoms: _163  and  _164
REMARK   64  A    between atoms: _164  and  _165
REMARK   65  A    between atoms: _168  and  _170
REMARK   66  A    between atoms: _170  and  _171
REMARK   67  A    between atoms: _170  and  _173
REMARK   68  A    between atoms: _173  and  _174
REMARK   69  A    between atoms: _174  and  _175
REMARK   70  A    between atoms: _178  and  _180
REMARK   71  A    between atoms: _180  and  _181
REMARK   72  A    between atoms: _180  and  _183
REMARK   73  A    between atoms: _183  and  _184
REMARK   74  A    between atoms: _187  and  _189
REMARK   75  A    between atoms: _189  and  _190
REMARK   76  A    between atoms: _189  and  _192
REMARK   77  A    between atoms: _192  and  _193
REMARK   78  A    between atoms: _193  and  _194
REMARK   79  A    between atoms: _197  and  _199
REMARK   80  A    between atoms: _199  and  _200
REMARK   81  A    between atoms: _199  and  _202
REMARK   82  A    between atoms: _202  and  _203
REMARK   83  A    between atoms: _203  and  _204
REMARK   84  A    between atoms: _207  and  _209
REMARK   85  A    between atoms: _209  and  _210
REMARK   86  A    between atoms: _209  and  _212
REMARK   87  A    between atoms: _212  and  _213
REMARK   88  A    between atoms: _218  and  _219
REMARK   89  A    between atoms: _221  and  _223
REMARK   90  A    between atoms: _223  and  _224
REMARK   91  A    between atoms: _223  and  _226
REMARK   92  A    between atoms: _226  and  _227
REMARK   93  A    between atoms: _237  and  _239
REMARK   94  A    between atoms: _239  and  _240
REMARK   95  A    between atoms: _239  and  _242
REMARK   96  A    between atoms: _242  and  _243
REMARK   97  A    between atoms: _246  and  _248
REMARK   98  A    between atoms: _248  and  _249
REMARK   99  A    between atoms: _248  and  _251
REMARK  100  A    between atoms: _251  and  _252
REMARK  101  A    between atoms: _252  and  _253
REMARK  102  A    between atoms: _253  and  _254
REMARK  103  A    between atoms: _263  and  _265
REMARK  104  A    between atoms: _265  and  _266
REMARK  105  A    between atoms: _265  and  _268
REMARK  106  A    between atoms: _268  and  _269
REMARK  107  A    between atoms: _274  and  _276
REMARK  108  A    between atoms: _276  and  _277
REMARK  109  A    between atoms: _276  and  _279
REMARK  110  A    between atoms: _279  and  _280
REMARK  111  A    between atoms: _283  and  _285
REMARK  112  A    between atoms: _285  and  _286
REMARK  113  A    between atoms: _285  and  _288
REMARK  114  A    between atoms: _288  and  _289
REMARK  115  A    between atoms: _289  and  _290
REMARK  116  A    between atoms: _295  and  _297
REMARK  117  A    between atoms: _297  and  _298
REMARK  118  A    between atoms: _297  and  _300
REMARK  119  A    between atoms: _300  and  _301
REMARK  120  A    between atoms: _304  and  _306
REMARK  121  A    between atoms: _306  and  _307
REMARK  122  A    between atoms: _306  and  _309
REMARK  123  A    between atoms: _311  and  _313
REMARK  124  A    between atoms: _313  and  _314
REMARK  125  A    between atoms: _313  and  _316
REMARK  126  A    between atoms: _316  and  _317
REMARK  127  A    between atoms: _320  and  _322
REMARK  128  A    between atoms: _322  and  _323
REMARK  129  A    between atoms: _322  and  _325
REMARK  130  A    between atoms: _325  and  _326
REMARK  131  A    between atoms: _331  and  _333
REMARK  132  A    between atoms: _333  and  _334
REMARK  133  A    between atoms: _333  and  _336
REMARK  134  A    between atoms: _336  and  _337
REMARK  135  A    between atoms: _337  and  _338
REMARK  136  A    between atoms: _343  and  _345
REMARK  137  A    between atoms: _345  and  _346
REMARK  138  A    between atoms: _345  and  _348
REMARK  139  A    between atoms: _348  and  _349
REMARK  140  A    between atoms: _352  and  _354
REMARK  141  A    between atoms: _354  and  _355
REMARK  142  A    between atoms: _354  and  _357
REMARK  143  A    between atoms: _357  and  _358
REMARK  144  A    between atoms: _361  and  _363
REMARK  145  A    between atoms: _363  and  _364
REMARK  146  A    between atoms: _363  and  _366
REMARK  147  A    between atoms: _366  and  _367
REMARK  148  A    between atoms: _367  and  _368
REMARK  149  A    between atoms: _368  and  _369
REMARK  150  A    between atoms: _378  and  _380
REMARK  151  A    between atoms: _380  and  _381
REMARK  152  A    between atoms: _380  and  _383
REMARK  153  A    between atoms: _383  and  _384
REMARK  154  A    between atoms: _384  and  _385
REMARK  155  A    between atoms: _388  and  _390
REMARK  156  A    between atoms: _390  and  _391
REMARK  157  A    between atoms: _390  and  _393
REMARK  158  A    between atoms: _393  and  _394
REMARK  159  A    between atoms: _396  and  _398
REMARK  160  A    between atoms: _398  and  _399
REMARK  161  A    between atoms: _398  and  _401
REMARK  162  A    between atoms: _401  and  _402
REMARK  163  A    between atoms: _405  and  _407
REMARK  164  A    between atoms: _407  and  _408
REMARK  165  A    between atoms: _407  and  _410
REMARK  166  A    between atoms: _410  and  _411
REMARK  167  A    between atoms: _411  and  _412
REMARK  168  A    between atoms: _412  and  _413
REMARK  169  A    between atoms: _422  and  _424
REMARK  170  A    between atoms: _424  and  _425
REMARK  171  A    between atoms: _424  and  _427
REMARK  172  A    between atoms: _427  and  _428
REMARK  173  A    between atoms: _433  and  _435
REMARK  174  A    between atoms: _435  and  _436
REMARK  175  A    between atoms: _435  and  _438
REMARK  176  A    between atoms: _438  and  _439
REMARK  177  A    between atoms: _442  and  _444
REMARK  178  A    between atoms: _444  and  _445
REMARK  179  A    between atoms: _444  and  _447
REMARK  180  A    between atoms: _447  and  _448
REMARK  181  A    between atoms: _453  and  _454
REMARK  182  A    between atoms: _456  and  _458
REMARK  183  A    between atoms: _458  and  _459
REMARK  184  A    between atoms: _458  and  _461
REMARK  185  A    between atoms: _461  and  _462
REMARK  186  A    between atoms: _465  and  _467
REMARK  187  A    between atoms: _467  and  _468
REMARK  188  A    between atoms: _467  and  _470
REMARK  189  A    between atoms: _470  and  _471
REMARK  190  A    between atoms: _471  and  _472
REMARK  191  A    between atoms: _477  and  _479
REMARK  192  A    between atoms: _479  and  _480
REMARK  193  A    between atoms: _479  and  _482
REMARK  194  A    between atoms: _482  and  _483
REMARK  195  A    between atoms: _483  and  _484
REMARK  196  A    between atoms: _484  and  _485
REMARK  197  A    between atoms: _494  and  _496
REMARK  198  A    between atoms: _496  and  _497
REMARK  199  A    between atoms: _496  and  _499
REMARK  200  A    between atoms: _499  and  _500
REMARK  201  A    between atoms: _505  and  _506
REMARK  202  A    between atoms: _508  and  _510
REMARK  203  A    between atoms: _510  and  _511
REMARK  204  A    between atoms: _513  and  _515
REMARK  205  A    between atoms: _515  and  _516
REMARK  206  A    between atoms: _515  and  _518
REMARK  207  A    between atoms: _518  and  _519
REMARK  208  A    between atoms: _524  and  _526
REMARK  209  A    between atoms: _526  and  _527
REMARK  210  A    between atoms: _526  and  _529
REMARK  211  A    between atoms: _529  and  _530
REMARK  212  A    between atoms: _530  and  _531
REMARK  213  A    between atoms: _536  and  _538
REMARK  214  A    between atoms: _538  and  _539
REMARK  215  A    between atoms: _538  and  _541
REMARK  216  A    between atoms: _541  and  _542
REMARK  217  A    between atoms: _548  and  _550
REMARK  218  A    between atoms: _550  and  _551
REMARK  219  A    between atoms: _554  and  _556
REMARK  220  A    between atoms: _556  and  _557
REMARK  221  A    between atoms: _556  and  _559
REMARK  222  A    between atoms: _559  and  _560
REMARK  223  A    between atoms: _565  and  _566
REMARK  224  A    between atoms: _568  and  _570
REMARK  225  A    between atoms: _570  and  _571
REMARK  226  A    between atoms: _570  and  _573
REMARK  227  A    between atoms: _573  and  _574
REMARK  228  A    between atoms: _579  and  _580
REMARK  229  A    between atoms: _582  and  _584
REMARK  230  A    between atoms: _584  and  _585
REMARK  231  A    between atoms: _584  and  _587
REMARK  232  A    between atoms: _587  and  _588
REMARK  233  A    between atoms: _591  and  _593
REMARK  234  A    between atoms: _593  and  _594
REMARK  235  A    between atoms: _593  and  _596
REMARK  236  A    between atoms: _596  and  _597
REMARK  237  A    between atoms: _607  and  _609
REMARK  238  A    between atoms: _609  and  _610
REMARK  239  A    between atoms: _613  and  _615
REMARK  240  A    between atoms: _615  and  _616
REMARK  241  A    between atoms: _619  and  _621
REMARK  242  A    between atoms: _621  and  _622
REMARK  243  A    between atoms: _621  and  _624
REMARK  244  A    between atoms: _624  and  _625
REMARK  245  A    between atoms: _625  and  _626
REMARK  246  A    between atoms: _631  and  _633
REMARK  247  A    between atoms: _633  and  _634
REMARK  248  A    between atoms: _633  and  _636
REMARK  249  A    between atoms: _636  and  _637
REMARK  250  A    between atoms: _640  and  _642
REMARK  251  A    between atoms: _642  and  _643
REMARK  252  A    between atoms: _642  and  _645
REMARK  253  A    between atoms: _645  and  _646
REMARK  254  A    between atoms: _649  and  _651
REMARK  255  A    between atoms: _651  and  _652
REMARK  256  A    between atoms: _651  and  _654
REMARK  257  A    between atoms: _654  and  _655
REMARK  258  A    between atoms: _655  and  _656
REMARK  259  A    between atoms: _661  and  _663
REMARK  260  A    between atoms: _663  and  _664
REMARK  261  A    between atoms: _663  and  _666
REMARK  262  A    between atoms: _666  and  _667
REMARK  263  A    between atoms: _667  and  _668
REMARK  264  A    between atoms: _668  and  _669
REMARK  265  A    between atoms: _678  and  _680
REMARK  266  A    between atoms: _680  and  _681
REMARK  267  A    between atoms: _680  and  _683
REMARK  268  A    between atoms: _683  and  _684
REMARK  269  A    between atoms: _684  and  _685
REMARK  270  A    between atoms: _685  and  _686
REMARK  271  A    between atoms: _686  and  _687
REMARK  272  A    between atoms: _691  and  _693
REMARK  273  A    between atoms: _693  and  _694
REMARK  274  A    between atoms: _693  and  _696
REMARK  275  A    between atoms: _696  and  _697
REMARK  276  A    between atoms: _707  and  _709
REMARK  277  A    between atoms: _709  and  _710
REMARK  278  A    between atoms: _713  and  _715
REMARK  279  A    between atoms: _715  and  _716
REMARK  280  A    between atoms: _719  and  _721
REMARK  281  A    between atoms: _721  and  _722
REMARK  282  A    between atoms: _721  and  _724
REMARK  283  A    between atoms: _724  and  _725
REMARK  284  A    between atoms: _725  and  _726
REMARK  285  A    between atoms: _726  and  _727
REMARK  286  A    between atoms: _736  and  _738
REMARK  287  A    between atoms: _738  and  _739
REMARK  288  A    between atoms: _738  and  _741
REMARK  289  A    between atoms: _744  and  _746
REMARK  290  A    between atoms: _746  and  _747
REMARK  291  A    between atoms: _750  and  _752
REMARK  292  A    between atoms: _752  and  _753
REMARK  293  A    between atoms: _752  and  _755
REMARK  294  A    between atoms: _755  and  _756
REMARK  295  A    between atoms: _756  and  _757
REMARK  296  A    between atoms: _760  and  _762
REMARK  297  A    between atoms: _762  and  _763
REMARK  298  A    between atoms: _762  and  _765
REMARK  299  A    between atoms: _765  and  _766
REMARK  300  A    between atoms: _766  and  _767
REMARK  301  A    between atoms: _772  and  _774
REMARK  302  A    between atoms: _774  and  _775
REMARK  303  A    between atoms: _774  and  _777
REMARK  304  A    between atoms: _777  and  _778
REMARK  305  A    between atoms: _781  and  _783
REMARK  306  A    between atoms: _783  and  _784
REMARK  307  A    between atoms: _783  and  _786
REMARK  308  A    between atoms: _786  and  _787
REMARK  309  A    between atoms: _787  and  _788
REMARK  310  A    between atoms: _788  and  _789
REMARK  311  A    between atoms: _798  and  _800
REMARK  312  A    between atoms: _800  and  _801
REMARK  313  A    between atoms: _800  and  _803
REMARK  314  A    between atoms: _803  and  _804
REMARK  315  A    between atoms: _807  and  _809
REMARK  316  A    between atoms: _809  and  _810
REMARK  317  A    between atoms: _809  and  _812
REMARK  318  A    between atoms: _812  and  _813
REMARK  319  A    between atoms: _818  and  _819
REMARK  320  A    between atoms: _821  and  _823
REMARK  321  A    between atoms: _823  and  _824
REMARK  322  A    between atoms: _823  and  _826
REMARK  323  A    between atoms: _826  and  _827
REMARK  324  A    between atoms: _830  and  _832
REMARK  325  A    between atoms: _832  and  _833
REMARK  326  A    between atoms: _832  and  _835
REMARK  327  A    between atoms: _835  and  _836
REMARK  328  A    between atoms: _839  and  _841
REMARK  329  A    between atoms: _841  and  _842
REMARK  330  A    between atoms: _841  and  _844
REMARK  331  A    between atoms: _846  and  _848
REMARK  332  A    between atoms: _848  and  _849
REMARK  333  A    between atoms: _848  and  _851
REMARK  334  A    between atoms: _854  and  _856
REMARK  335  A    between atoms: _856  and  _857
REMARK  336  A    between atoms: _856  and  _859
REMARK  337  A    between atoms: _859  and  _860
REMARK  338  A    between atoms: _860  and  _861
REMARK  339  A    between atoms: _864  and  _866
REMARK  340  A    between atoms: _866  and  _867
REMARK  341  A    between atoms: _866  and  _869
REMARK  342  A    between atoms: _869  and  _870
REMARK  343  A    between atoms: _880  and  _882
REMARK  344  A    between atoms: _882  and  _883
REMARK  345  A    between atoms: _882  and  _885
REMARK  346  A    between atoms: _885  and  _886
REMARK  347  A    between atoms: _889  and  _891
REMARK  348  A    between atoms: _891  and  _892
REMARK  349  A    between atoms: _891  and  _894
REMARK  350  A    between atoms: _894  and  _895
REMARK  351  A    between atoms: _900  and  _901
REMARK                            x       y       z     vdW  Elec       q    Type
REMARK                         _______ _______ _______ _____ _____    ______ ____
ROOT
ATOM      1  CA  TYR A   3       8.805  11.955  29.228  0.00  0.00    +0.153 C 
ENDROOT
BRANCH   1   3
ATOM      2  C   ARG A   2      10.608  13.445  28.585  0.00  0.00    +0.241 C 
ATOM      3  N   TYR A   3       9.361  13.282  29.008  0.00  0.00    -0.297 N 
ATOM      4  H   TYR A   3       8.769  14.119  29.186  0.00  0.00    +0.150 HD
ATOM      5  O   ARG A   2      11.453  12.550  28.600  0.00  0.00    -0.273 OA
BRANCH   2   6
ATOM      6  CA  ARG A   2      10.953  14.821  28.056  0.00  0.00    +0.149 C 
BRANCH   6   9
ATOM      7  C   MET A   1      12.492  16.493  28.902  0.00  0.00    +0.238 C 
ATOM      8  O   MET A   1      11.627  17.370  28.877  0.00  0.00    -0.274 OA
ATOM      9  N   ARG A   2      12.262  15.239  28.533  0.00  0.00    -0.297 N 
ATOM     10  H   ARG A   2      13.032  14.542  28.586  0.00  0.00    +0.150 HD
BRANCH   7  11
ATOM     11  CA  MET A   1      13.909  16.818  29.351  0.00  0.00    +0.146 C 
BRANCH  11  12
ATOM     12  N   MET A   1      14.267  18.103  28.777  0.00  0.00    -0.238 NA
ATOM     13  H   MET A   1      13.701  18.942  29.017  0.00  0.00    +0.142 HD
ENDBRANCH  11  12
BRANCH  11  14
ATOM     14  CB  MET A   1      13.988  16.846  30.878  0.00  0.00    +0.038 C 
BRANCH  14  15
ATOM     15  CG  MET A   1      13.747  15.481  31.512  0.00  0.00    +0.060 C 
BRANCH  15  16
ATOM     16  SD  MET A   1      14.022  15.434  33.295  0.00  0.00    -0.139 S 
ATOM     17  CE  MET A   1      12.648  16.422  33.888  0.00  0.00    +0.069 C 
ENDBRANCH  15  16
ENDBRANCH  14  15
ENDBRANCH  11  14
ENDBRANCH   7  11
ENDBRANCH   6   9
BRANCH   6  18
ATOM     18  CB  ARG A   2      10.930  14.748  26.530  0.00  0.00    +0.033 C 
BRANCH  18  19
ATOM     19  CG  ARG A   2      11.051  16.069  25.826  0.00  0.00    +0.045 C 
BRANCH  19  20
ATOM     20  CD  ARG A   2       9.753  16.850  25.861  0.00  0.00    +0.174 C 
BRANCH  20  21
ATOM     21  NE  ARG A   2       9.848  17.984  24.951  0.00  0.00    -0.265 N 
ATOM     22  CZ  ARG A   2      10.480  19.115  25.242  0.00  0.00    +0.342 C 
ATOM     23  NH2 ARG A   2      11.054  19.267  26.429  0.00  0.00    -0.292 N 
ATOM     24 HH21 ARG A   2      11.009  18.501  27.131  0.00  0.00    +0.255 HD
ATOM     25 HH22 ARG A   2      11.549  20.153  26.658  0.00  0.00    +0.255 HD
ATOM     26  NH1 ARG A   2      10.533  20.091  24.348  0.00  0.00    -0.292 N 
ATOM     27 HH11 ARG A   2      11.028  20.977  24.575  0.00  0.00    +0.255 HD
ATOM     28 HH12 ARG A   2      10.080  19.971  23.420  0.00  0.00    +0.255 HD
ATOM     29  HE  ARG A   2       9.394  17.903  24.019  0.00  0.00    +0.259 HD
ENDBRANCH  20  21
ENDBRANCH  19  20
ENDBRANCH  18  19
ENDBRANCH   6  18
ENDBRANCH   2   6
ENDBRANCH   1   3
BRANCH   1  30
ATOM     30  C   TYR A   3       7.801  11.655  28.128  0.00  0.00    +0.241 C 
ATOM     31  O   TYR A   3       7.025  12.525  27.728  0.00  0.00    -0.273 OA
ATOM     32  N   PHE A   4       7.845  10.427  27.625  0.00  0.00    -0.297 N 
ATOM     33  H   PHE A   4       8.558   9.763  27.988  0.00  0.00    +0.150 HD
BRANCH  32  34
ATOM     34  CA  PHE A   4       6.935   9.975  26.587  0.00  0.00    +0.153 C 
BRANCH  34  35
ATOM     35  C   PHE A   4       6.169   8.767  27.108  0.00  0.00    +0.241 C 
ATOM     36  O   PHE A   4       6.761   7.713  27.358  0.00  0.00    -0.273 OA
ATOM     37  N   TYR A   5       4.861   8.930  27.286  0.00  0.00    -0.298 N 
ATOM     38  H   TYR A   5       4.442   9.862  27.093  0.00  0.00    +0.150 HD
BRANCH  37  39
ATOM     39  CA  TYR A   5       3.991   7.849  27.743  0.00  0.00    +0.141 C 
BRANCH  39  40
ATOM     40  C   TYR A   5       3.154   7.315  26.591  0.00  0.00    +0.227 C 
ATOM     41  O   TYR A   5       2.575   8.085  25.822  0.00  0.00    -0.286 OA
ENDBRANCH  39  40
BRANCH  39  42
ATOM     42  CB  TYR A   5       3.017   8.331  28.820  0.00  0.00    +0.054 C 
BRANCH  42  43
ATOM     43  CG  TYR A   5       3.617   8.823  30.117  0.00  0.00    -0.020 A 
ATOM     44  CD2 TYR A   5       2.812   9.443  31.065  0.00  0.00    -0.001 A 
ATOM     45  CE2 TYR A   5       3.329   9.899  32.255  0.00  0.00    +0.036 A 
ATOM     46  CZ  TYR A   5       4.668   9.744  32.518  0.00  0.00    +0.134 A 
ATOM     47  CE1 TYR A   5       5.500   9.134  31.597  0.00  0.00    +0.036 A 
ATOM     48  CD1 TYR A   5       4.969   8.673  30.400  0.00  0.00    -0.001 A 
BRANCH  46  49
ATOM     49  OH  TYR A   5       5.164  10.210  33.713  0.00  0.00    -0.506 OA
ATOM     50  HH  TYR A   5       5.858  10.894  33.537  0.00  0.00    +0.292 HD
ENDBRANCH  46  49
ENDBRANCH  42  43
ENDBRANCH  39  42
ENDBRANCH  37  39
ENDBRANCH  34  35
BRANCH  34  51
ATOM     51  CB  PHE A   4       7.710   9.582  25.330  0.00  0.00    +0.055 C 
BRANCH  51  52
ATOM     52  CG  PHE A   4       8.534  10.696  24.745  0.00  0.00    -0.020 A 
ATOM     53  CD2 PHE A   4       9.855  10.870  25.120  0.00  0.00    -0.004 A 
ATOM     54  CE2 PHE A   4      10.619  11.886  24.573  0.00  0.00    -0.000 A 
ATOM     55  CZ  PHE A   4      10.063  12.743  23.640  0.00  0.00    -0.000 A 
ATOM     56  CE1 PHE A   4       8.749  12.578  23.257  0.00  0.00    -0.000 A 
ATOM     57  CD1 PHE A   4       7.992  11.557  23.806  0.00  0.00    -0.004 A 
ENDBRANCH  51  52
ENDBRANCH  34  51
ENDBRANCH  32  34
ENDBRANCH   1  30
BRANCH   1  58
ATOM     58  CB  TYR A   3       8.141  11.851  30.598  0.00  0.00    +0.055 C 
BRANCH  58  59
ATOM     59  CG  TYR A   3       9.129  11.721  31.731  0.00  0.00    -0.020 A 
ATOM     60  CD2 TYR A   3       9.375  12.784  32.592  0.00  0.00    -0.001 A 
ATOM     61  CE2 TYR A   3      10.277  12.667  33.632  0.00  0.00    +0.036 A 
ATOM     62  CZ  TYR A   3      10.948  11.477  33.819  0.00  0.00    +0.134 A 
ATOM     63  CE1 TYR A   3      10.724  10.409  32.978  0.00  0.00    +0.036 A 
ATOM     64  CD1 TYR A   3       9.818  10.534  31.942  0.00  0.00    -0.001 A 
BRANCH  62  65
ATOM     65  OH  TYR A   3      11.850  11.355  34.852  0.00  0.00    -0.506 OA
ATOM     66  HH  TYR A   3      12.239  10.445  34.843  0.00  0.00    +0.292 HD
ENDBRANCH  62  65
ENDBRANCH  58  59
ENDBRANCH   1  58
TORSDOF 25
REMARK  Name = ../refined-set-2016/4o2c/4o2c_pocket.pdb
REMARK  351 active torsions:
REMARK  status: ('A' for Active; 'I' for Inactive)
REMARK    1  A    between atoms: _1  and  _3
REMARK    2  A    between atoms: _3  and  _4
REMARK    3  A    between atoms: _3  and  _6
REMARK    4  A    between atoms: _6  and  _7
REMARK    5  A    between atoms: _7  and  _8
REMARK    6  A    between atoms: _10  and  _12
REMARK    7  A    between atoms: _12  and  _13
REMARK    8  A    between atoms: _12  and  _15
REMARK    9  A    between atoms: _15  and  _16
REMARK   10  A    between atoms: _16  and  _17
REMARK   11  A    between atoms: _17  and  _18
REMARK   12  A    between atoms: _27  and  _29
REMARK   13  A    between atoms: _29  and  _30
REMARK   14  A    between atoms: _29  and  _32
REMARK   15  A    between atoms: _32  and  _33
REMARK   16  A    between atoms: _38  and  _39
REMARK   17  A    between atoms: _41  and  _43
REMARK   18  A    between atoms: _43  and  _44
REMARK   19  A    between atoms: _43  and  _46
REMARK   20  A    between atoms: _46  and  _47
REMARK   21  A    between atoms: _53  and  _55
REMARK   22  A    between atoms: _55  and  _56
REMARK   23  A    between atoms: _55  and  _58
REMARK   24  A    between atoms: _58  and  _59
REMARK   25  A    between atoms: _64  and  _65
REMARK   26  A    between atoms: _67  and  _69
REMARK   27  A    between atoms: _69  and  _70
REMARK   28  A    between atoms: _69  and  _72
REMARK   29  A    between atoms: _72  and  _73
REMARK   30  A    between atoms: _79  and  _81
REMARK   31  A    between atoms: _81  and  _82
REMARK   32  A    between atoms: _81  and  _84
REMARK   33  A    between atoms: _84  and  _85
REMARK   34  A    between atoms: _88  and  _90
REMARK   35  A    between atoms: _90  and  _91
REMARK   36  A    between atoms: _90  and  _93
REMARK   37  A    between atoms: _93  and  _94
REMARK   38  A    between atoms: _96  and  _98
REMARK   39  A    between atoms: _98  and  _99
REMARK   40  A    between atoms: _98  and  _101
REMARK   41  A    between atoms: _104  and  _106
REMARK   42  A    between atoms: _106  and  _107
REMARK   43  A    between atoms: _109  and  _111
REMARK   44  A    between atoms: _111  and  _112
REMARK   45  A    between atoms: _111  and  _114
REMARK   46  A    between atoms: _114  and  _115
REMARK   47  A    between atoms: _121  and  _123
REMARK   48  A    between atoms: _123  and  _124
REMARK   49  A    between atoms: _123  and  _126
REMARK   50  A    between atoms: _129  and  _131
REMARK   51  A    between atoms: _131  and  _132
REMARK   52  A    between atoms: _131  and  _134
REMARK   53  A    between atoms: _134  and  _135
REMARK   54  A    between atoms: _135  and  _136
REMARK   55  A    between atoms: _136  and  _137
REMARK   56  A    between atoms: _146  and  _148
REMARK   57  A    between atoms: _148  and  _149
REMARK   58  A    between atoms: _148  and  _151
REMARK   59  A    between atoms: _151  and  _152
REMARK   60  A    between atoms: _158  and  _160
REMARK   61  A    between atoms: _160  and  _161
REMARK   62  A    between atoms: _160  and  _163
REMARK   63  A    between atoms: _163  and  _164
REMARK   64  A    between atoms: _164  and  _165
REMARK   65  A    between atoms: _168  and  _170
REMARK   66  A    between atoms: _170  and  _171
REMARK   67  A    between atoms: _170  and  _173
REMARK   68  A    between atoms: _173  and  _174
REMARK   69  A    between atoms: _174  and  _175
REMARK   70  A    between atoms: _178  and  _180
REMARK   71  A    between atoms: _180  and  _181
REMARK   72  A    between atoms: _180  and  _183
REMARK   73  A    between atoms: _183  and  _184
REMARK   74  A    between atoms: _187  and  _189
REMARK   75  A    between atoms: _189  and  _190
REMARK   76  A    between atoms: _189  and  _192
REMARK   77  A    between atoms: _192  and  _193
REMARK   78  A    between atoms: _193  and  _194
REMARK   79  A    between atoms: _197  and  _199
REMARK   80  A    between atoms: _199  and  _200
REMARK   81  A    between atoms: _199  and  _202
REMARK   82  A    between atoms: _202  and  _203
REMARK   83  A    between atoms: _203  and  _204
REMARK   84  A    between atoms: _207  and  _209
REMARK   85  A    between atoms: _209  and  _210
REMARK   86  A    between atoms: _209  and  _212
REMARK   87  A    between atoms: _212  and  _213
REMARK   88  A    between atoms: _218  and  _219
REMARK   89  A    between atoms: _221  and  _223
REMARK   90  A    between atoms: _223  and  _224
REMARK   91  A    between atoms: _223  and  _226
REMARK   92  A    between atoms: _226  and  _227
REMARK   93  A    between atoms: _237  and  _239
REMARK   94  A    between atoms: _239  and  _240
REMARK   95  A    between atoms: _239  and  _242
REMARK   96  A    between atoms: _242  and  _243
REMARK   97  A    between atoms: _246  and  _248
REMARK   98  A    between atoms: _248  and  _249
REMARK   99  A    between atoms: _248  and  _251
REMARK  100  A    between atoms: _251  and  _252
REMARK  101  A    between atoms: _252  and  _253
REMARK  102  A    between atoms: _253  and  _254
REMARK  103  A    between atoms: _263  and  _265
REMARK  104  A    between atoms: _265  and  _266
REMARK  105  A    between atoms: _265  and  _268
REMARK  106  A    between atoms: _268  and  _269
REMARK  107  A    between atoms: _274  and  _276
REMARK  108  A    between atoms: _276  and  _277
REMARK  109  A    between atoms: _276  and  _279
REMARK  110  A    between atoms: _279  and  _280
REMARK  111  A    between atoms: _283  and  _285
REMARK  112  A    between atoms: _285  and  _286
REMARK  113  A    between atoms: _285  and  _288
REMARK  114  A    between atoms: _288  and  _289
REMARK  115  A    between atoms: _289  and  _290
REMARK  116  A    between atoms: _295  and  _297
REMARK  117  A    between atoms: _297  and  _298
REMARK  118  A    between atoms: _297  and  _300
REMARK  119  A    between atoms: _300  and  _301
REMARK  120  A    between atoms: _304  and  _306
REMARK  121  A    between atoms: _306  and  _307
REMARK  122  A    between atoms: _306  and  _309
REMARK  123  A    between atoms: _311  and  _313
REMARK  124  A    between atoms: _313  and  _314
REMARK  125  A    between atoms: _313  and  _316
REMARK  126  A    between atoms: _316  and  _317
REMARK  127  A    between atoms: _320  and  _322
REMARK  128  A    between atoms: _322  and  _323
REMARK  129  A    between atoms: _322  and  _325
REMARK  130  A    between atoms: _325  and  _326
REMARK  131  A    between atoms: _331  and  _333
REMARK  132  A    between atoms: _333  and  _334
REMARK  133  A    between atoms: _333  and  _336
REMARK  134  A    between atoms: _336  and  _337
REMARK  135  A    between atoms: _337  and  _338
REMARK  136  A    between atoms: _343  and  _345
REMARK  137  A    between atoms: _345  and  _346
REMARK  138  A    between atoms: _345  and  _348
REMARK  139  A    between atoms: _348  and  _349
REMARK  140  A    between atoms: _352  and  _354
REMARK  141  A    between atoms: _354  and  _355
REMARK  142  A    between atoms: _354  and  _357
REMARK  143  A    between atoms: _357  and  _358
REMARK  144  A    between atoms: _361  and  _363
REMARK  145  A    between atoms: _363  and  _364
REMARK  146  A    between atoms: _363  and  _366
REMARK  147  A    between atoms: _366  and  _367
REMARK  148  A    between atoms: _367  and  _368
REMARK  149  A    between atoms: _368  and  _369
REMARK  150  A    between atoms: _378  and  _380
REMARK  151  A    between atoms: _380  and  _381
REMARK  152  A    between atoms: _380  and  _383
REMARK  153  A    between atoms: _383  and  _384
REMARK  154  A    between atoms: _384  and  _385
REMARK  155  A    between atoms: _388  and  _390
REMARK  156  A    between atoms: _390  and  _391
REMARK  157  A    between atoms: _390  and  _393
REMARK  158  A    between atoms: _393  and  _394
REMARK  159  A    between atoms: _396  and  _398
REMARK  160  A    between atoms: _398  and  _399
REMARK  161  A    between atoms: _398  and  _401
REMARK  162  A    between atoms: _401  and  _402
REMARK  163  A    between atoms: _405  and  _407
REMARK  164  A    between atoms: _407  and  _408
REMARK  165  A    between atoms: _407  and  _410
REMARK  166  A    between atoms: _410  and  _411
REMARK  167  A    between atoms: _411  and  _412
REMARK  168  A    between atoms: _412  and  _413
REMARK  169  A    between atoms: _422  and  _424
REMARK  170  A    between atoms: _424  and  _425
REMARK  171  A    between atoms: _424  and  _427
REMARK  172  A    between atoms: _427  and  _428
REMARK  173  A    between atoms: _433  and  _435
REMARK  174  A    between atoms: _435  and  _436
REMARK  175  A    between atoms: _435  and  _438
REMARK  176  A    between atoms: _438  and  _439
REMARK  177  A    between atoms: _442  and  _444
REMARK  178  A    between atoms: _444  and  _445
REMARK  179  A    between atoms: _444  and  _447
REMARK  180  A    between atoms: _447  and  _448
REMARK  181  A    between atoms: _453  and  _454
REMARK  182  A    between atoms: _456  and  _458
REMARK  183  A    between atoms: _458  and  _459
REMARK  184  A    between atoms: _458  and  _461
REMARK  185  A    between atoms: _461  and  _462
REMARK  186  A    between atoms: _465  and  _467
REMARK  187  A    between atoms: _467  and  _468
REMARK  188  A    between atoms: _467  and  _470
REMARK  189  A    between atoms: _470  and  _471
REMARK  190  A    between atoms: _471  and  _472
REMARK  191  A    between atoms: _477  and  _479
REMARK  192  A    between atoms: _479  and  _480
REMARK  193  A    between atoms: _479  and  _482
REMARK  194  A    between atoms: _482  and  _483
REMARK  195  A    between atoms: _483  and  _484
REMARK  196  A    between atoms: _484  and  _485
REMARK  197  A    between atoms: _494  and  _496
REMARK  198  A    between atoms: _496  and  _497
REMARK  199  A    between atoms: _496  and  _499
REMARK  200  A    between atoms: _499  and  _500
REMARK  201  A    between atoms: _505  and  _506
REMARK  202  A    between atoms: _508  and  _510
REMARK  203  A    between atoms: _510  and  _511
REMARK  204  A    between atoms: _513  and  _515
REMARK  205  A    between atoms: _515  and  _516
REMARK  206  A    between atoms: _515  and  _518
REMARK  207  A    between atoms: _518  and  _519
REMARK  208  A    between atoms: _524  and  _526
REMARK  209  A    between atoms: _526  and  _527
REMARK  210  A    between atoms: _526  and  _529
REMARK  211  A    between atoms: _529  and  _530
REMARK  212  A    between atoms: _530  and  _531
REMARK  213  A    between atoms: _536  and  _538
REMARK  214  A    between atoms: _538  and  _539
REMARK  215  A    between atoms: _538  and  _541
REMARK  216  A    between atoms: _541  and  _542
REMARK  217  A    between atoms: _548  and  _550
REMARK  218  A    between atoms: _550  and  _551
REMARK  219  A    between atoms: _554  and  _556
REMARK  220  A    between atoms: _556  and  _557
REMARK  221  A    between atoms: _556  and  _559
REMARK  222  A    between atoms: _559  and  _560
REMARK  223  A    between atoms: _565  and  _566
REMARK  224  A    between atoms: _568  and  _570
REMARK  225  A    between atoms: _570  and  _571
REMARK  226  A    between atoms: _570  and  _573
REMARK  227  A    between atoms: _573  and  _574
REMARK  228  A    between atoms: _579  and  _580
REMARK  229  A    between atoms: _582  and  _584
REMARK  230  A    between atoms: _584  and  _585
REMARK  231  A    between atoms: _584  and  _587
REMARK  232  A    between atoms: _587  and  _588
REMARK  233  A    between atoms: _591  and  _593
REMARK  234  A    between atoms: _593  and  _594
REMARK  235  A    between atoms: _593  and  _596
REMARK  236  A    between atoms: _596  and  _597
REMARK  237  A    between atoms: _607  and  _609
REMARK  238  A    between atoms: _609  and  _610
REMARK  239  A    between atoms: _613  and  _615
REMARK  240  A    between atoms: _615  and  _616
REMARK  241  A    between atoms: _619  and  _621
REMARK  242  A    between atoms: _621  and  _622
REMARK  243  A    between atoms: _621  and  _624
REMARK  244  A    between atoms: _624  and  _625
REMARK  245  A    between atoms: _625  and  _626
REMARK  246  A    between atoms: _631  and  _633
REMARK  247  A    between atoms: _633  and  _634
REMARK  248  A    between atoms: _633  and  _636
REMARK  249  A    between atoms: _636  and  _637
REMARK  250  A    between atoms: _640  and  _642
REMARK  251  A    between atoms: _642  and  _643
REMARK  252  A    between atoms: _642  and  _645
REMARK  253  A    between atoms: _645  and  _646
REMARK  254  A    between atoms: _649  and  _651
REMARK  255  A    between atoms: _651  and  _652
REMARK  256  A    between atoms: _651  and  _654
REMARK  257  A    between atoms: _654  and  _655
REMARK  258  A    between atoms: _655  and  _656
REMARK  259  A    between atoms: _661  and  _663
REMARK  260  A    between atoms: _663  and  _664
REMARK  261  A    between atoms: _663  and  _666
REMARK  262  A    between atoms: _666  and  _667
REMARK  263  A    between atoms: _667  and  _668
REMARK  264  A    between atoms: _668  and  _669
REMARK  265  A    between atoms: _678  and  _680
REMARK  266  A    between atoms: _680  and  _681
REMARK  267  A    between atoms: _680  and  _683
REMARK  268  A    between atoms: _683  and  _684
REMARK  269  A    between atoms: _684  and  _685
REMARK  270  A    between atoms: _685  and  _686
REMARK  271  A    between atoms: _686  and  _687
REMARK  272  A    between atoms: _691  and  _693
REMARK  273  A    between atoms: _693  and  _694
REMARK  274  A    between atoms: _693  and  _696
REMARK  275  A    between atoms: _696  and  _697
REMARK  276  A    between atoms: _707  and  _709
REMARK  277  A    between atoms: _709  and  _710
REMARK  278  A    between atoms: _713  and  _715
REMARK  279  A    between atoms: _715  and  _716
REMARK  280  A    between atoms: _719  and  _721
REMARK  281  A    between atoms: _721  and  _722
REMARK  282  A    between atoms: _721  and  _724
REMARK  283  A    between atoms: _724  and  _725
REMARK  284  A    between atoms: _725  and  _726
REMARK  285  A    between atoms: _726  and  _727
REMARK  286  A    between atoms: _736  and  _738
REMARK  287  A    between atoms: _738  and  _739
REMARK  288  A    between atoms: _738  and  _741
REMARK  289  A    between atoms: _744  and  _746
REMARK  290  A    between atoms: _746  and  _747
REMARK  291  A    between atoms: _750  and  _752
REMARK  292  A    between atoms: _752  and  _753
REMARK  293  A    between atoms: _752  and  _755
REMARK  294  A    between atoms: _755  and  _756
REMARK  295  A    between atoms: _756  and  _757
REMARK  296  A    between atoms: _760  and  _762
REMARK  297  A    between atoms: _762  and  _763
REMARK  298  A    between atoms: _762  and  _765
REMARK  299  A    between atoms: _765  and  _766
REMARK  300  A    between atoms: _766  and  _767
REMARK  301  A    between atoms: _772  and  _774
REMARK  302  A    between atoms: _774  and  _775
REMARK  303  A    between atoms: _774  and  _777
REMARK  304  A    between atoms: _777  and  _778
REMARK  305  A    between atoms: _781  and  _783
REMARK  306  A    between atoms: _783  and  _784
REMARK  307  A    between atoms: _783  and  _786
REMARK  308  A    between atoms: _786  and  _787
REMARK  309  A    between atoms: _787  and  _788
REMARK  310  A    between atoms: _788  and  _789
REMARK  311  A    between atoms: _798  and  _800
REMARK  312  A    between atoms: _800  and  _801
REMARK  313  A    between atoms: _800  and  _803
REMARK  314  A    between atoms: _803  and  _804
REMARK  315  A    between atoms: _807  and  _809
REMARK  316  A    between atoms: _809  and  _810
REMARK  317  A    between atoms: _809  and  _812
REMARK  318  A    between atoms: _812  and  _813
REMARK  319  A    between atoms: _818  and  _819
REMARK  320  A    between atoms: _821  and  _823
REMARK  321  A    between atoms: _823  and  _824
REMARK  322  A    between atoms: _823  and  _826
REMARK  323  A    between atoms: _826  and  _827
REMARK  324  A    between atoms: _830  and  _832
REMARK  325  A    between atoms: _832  and  _833
REMARK  326  A    between atoms: _832  and  _835
REMARK  327  A    between atoms: _835  and  _836
REMARK  328  A    between atoms: _839  and  _841
REMARK  329  A    between atoms: _841  and  _842
REMARK  330  A    between atoms: _841  and  _844
REMARK  331  A    between atoms: _846  and  _848
REMARK  332  A    between atoms: _848  and  _849
REMARK  333  A    between atoms: _848  and  _851
REMARK  334  A    between atoms: _854  and  _856
REMARK  335  A    between atoms: _856  and  _857
REMARK  336  A    between atoms: _856  and  _859
REMARK  337  A    between atoms: _859  and  _860
REMARK  338  A    between atoms: _860  and  _861
REMARK  339  A    between atoms: _864  and  _866
REMARK  340  A    between atoms: _866  and  _867
REMARK  341  A    between atoms: _866  and  _869
REMARK  342  A    between atoms: _869  and  _870
REMARK  343  A    between atoms: _880  and  _882
REMARK  344  A    between atoms: _882  and  _883
REMARK  345  A    between atoms: _882  and  _885
REMARK  346  A    between atoms: _885  and  _886
REMARK  347  A    between atoms: _889  and  _891
REMARK  348  A    between atoms: _891  and  _892
REMARK  349  A    between atoms: _891  and  _894
REMARK  350  A    between atoms: _894  and  _895
REMARK  351  A    between atoms: _900  and  _901
REMARK                            x       y       z     vdW  Elec       q    Type
REMARK                         _______ _______ _______ _____ _____    ______ ____
ROOT
ATOM      1  C   ILE A   2       5.541   3.713  28.711  0.00  0.00    +0.241 C 
ATOM      2  N   SER A   3       6.621   3.911  29.457  0.00  0.00    -0.295 N 
ATOM      3  H   SER A   3       7.097   3.092  29.886  0.00  0.00    +0.150 HD
ATOM      4  O   ILE A   2       4.886   4.631  28.219  0.00  0.00    -0.273 OA
ENDROOT
BRANCH   2   5
ATOM      5  CA  SER A   3       7.155   5.242  29.689  0.00  0.00    +0.178 C 
BRANCH   5   6
ATOM      6  C   SER A   3       8.645   5.248  29.398  0.00  0.00    +0.243 C 
ATOM      7  O   SER A   3       9.369   4.356  29.832  0.00  0.00    -0.273 OA
ATOM      8  N   VAL A   4       9.099   6.246  28.649  0.00  0.00    -0.297 N 
ATOM      9  H   VAL A   4       8.424   6.883  28.180  0.00  0.00    +0.150 HD
BRANCH   8  10
ATOM     10  CA  VAL A   4      10.529   6.462  28.475  0.00  0.00    +0.149 C 
BRANCH  10  11
ATOM     11  C   VAL A   4      10.859   7.920  28.763  0.00  0.00    +0.241 C 
ATOM     12  N   GLY A   5      12.042   8.152  29.321  0.00  0.00    -0.296 N 
ATOM     13  H   GLY A   5      12.665   7.349  29.542  0.00  0.00    +0.150 HD
ATOM     14  O   VAL A   4      10.052   8.813  28.498  0.00  0.00    -0.273 OA
BRANCH  12  15
ATOM     15  CA  GLY A   5      12.487   9.499  29.630  0.00  0.00    +0.163 C 
BRANCH  15  16
ATOM     16  C   GLY A   5      13.738   9.851  28.851  0.00  0.00    +0.229 C 
ATOM     17  O   GLY A   5      14.636   9.022  28.705  0.00  0.00    -0.286 OA
ENDBRANCH  15  16
ENDBRANCH  12  15
ENDBRANCH  10  11
BRANCH  10  18
ATOM     18  CB  VAL A   4      11.016   6.074  27.064  0.00  0.00    +0.027 C 
ATOM     19  CG2 VAL A   4      10.825   4.583  26.827  0.00  0.00    +0.002 C 
ATOM     20  CG1 VAL A   4      10.293   6.884  25.998  0.00  0.00    +0.002 C 
ENDBRANCH  10  18
ENDBRANCH   8  10
ENDBRANCH   5   6
BRANCH   5  21
ATOM     21  CB  SER A   3       6.913   5.669  31.137  0.00  0.00    +0.166 C 
BRANCH  21  22
ATOM     22  OG  SER A   3       7.638   6.851  31.445  0.00  0.00    -0.380 OA
ATOM     23  H   SER A   3       8.606   6.685  31.319  0.00  0.00    +0.211 HD
ENDBRANCH  21  22
ENDBRANCH   5  21
ENDBRANCH   2   5
BRANCH   1  24
ATOM     24  CA  ILE A   2       5.134   2.262  28.500  0.00  0.00    +0.148 C 
BRANCH  24  27
ATOM     25  C   PHE A   1       3.154   1.302  29.547  0.00  0.00    +0.239 C 
ATOM     26  O   PHE A   1       3.819   0.531  30.239  0.00  0.00    -0.274 OA
ATOM     27  N   ILE A   2       3.693   2.125  28.653  0.00  0.00    -0.297 N 
ATOM     28  H   ILE A   2       3.066   2.688  28.044  0.00  0.00    +0.150 HD
BRANCH  25  29
ATOM     29  CA  PHE A   1       1.635   1.342  29.670  0.00  0.00    +0.149 C 
BRANCH  29  30
ATOM     30  N   PHE A   1       1.077   0.007  29.472  0.00  0.00    -0.238 NA
ATOM     31  H   PHE A   1       1.272  -0.730  30.179  0.00  0.00    +0.142 HD
ENDBRANCH  29  30
BRANCH  29  32
ATOM     32  CB  PHE A   1       1.236   1.891  31.042  0.00  0.00    +0.053 C 
BRANCH  32  33
ATOM     33  CG  PHE A   1       1.846   3.231  31.368  0.00  0.00    -0.020 A 
ATOM     34  CD2 PHE A   1       3.062   3.313  32.031  0.00  0.00    -0.004 A 
ATOM     35  CE2 PHE A   1       3.625   4.544  32.336  0.00  0.00    -0.000 A 
ATOM     36  CZ  PHE A   1       2.970   5.710  31.977  0.00  0.00    -0.000 A 
ATOM     37  CE1 PHE A   1       1.753   5.642  31.320  0.00  0.00    -0.000 A 
ATOM     38  CD1 PHE A   1       1.198   4.408  31.019  0.00  0.00    -0.004 A 
ENDBRANCH  32  33
ENDBRANCH  29  32
ENDBRANCH  25  29
ENDBRANCH  24  27
BRANCH  24  39
ATOM     39  CB  ILE A   2       5.605   1.806  27.107  0.00  0.00    +0.027 C 
ATOM     40  CG2 ILE A   2       7.069   2.181  26.885  0.00  0.00    +0.002 C 
BRANCH  39  41
ATOM     41  CG1 ILE A   2       5.398   0.298  26.946  0.00  0.00    +0.002 C 
ATOM     42  CD1 ILE A   2       5.734  -0.222  25.562  0.00  0.00    +0.000 C 
ENDBRANCH  39  41
ENDBRANCH  24  39
ENDBRANCH   1  24
TORSDOF 17
REMARK  Name = ../refined-set-2016/4o2c/4o2c_pocket.pdb
REMARK  351 active torsions:
REMARK  status: ('A' for Active; 'I' for Inactive)
REMARK    1  A    between atoms: _1  and  _3
REMARK    2  A    between atoms: _3  and  _4
REMARK    3  A    between atoms: _3  and  _6
REMARK    4  A    between atoms: _6  and  _7
REMARK    5  A    between atoms: _7  and  _8
REMARK    6  A    between atoms: _10  and  _12
REMARK    7  A    between atoms: _12  and  _13
REMARK    8  A    between atoms: _12  and  _15
REMARK    9  A    between atoms: _15  and  _16
REMARK   10  A    between atoms: _16  and  _17
REMARK   11  A    between atoms: _17  and  _18
REMARK   12  A    between atoms: _27  and  _29
REMARK   13  A    between atoms: _29  and  _30
REMARK   14  A    between atoms: _29  and  _32
REMARK   15  A    between atoms: _32  and  _33
REMARK   16  A    between atoms: _38  and  _39
REMARK   17  A    between atoms: _41  and  _43
REMARK   18  A    between atoms: _43  and  _44
REMARK   19  A    between atoms: _43  and  _46
REMARK   20  A    between atoms: _46  and  _47
REMARK   21  A    between atoms: _53  and  _55
REMARK   22  A    between atoms: _55  and  _56
REMARK   23  A    between atoms: _55  and  _58
REMARK   24  A    between atoms: _58  and  _59
REMARK   25  A    between atoms: _64  and  _65
REMARK   26  A    between atoms: _67  and  _69
REMARK   27  A    between atoms: _69  and  _70
REMARK   28  A    between atoms: _69  and  _72
REMARK   29  A    between atoms: _72  and  _73
REMARK   30  A    between atoms: _79  and  _81
REMARK   31  A    between atoms: _81  and  _82
REMARK   32  A    between atoms: _81  and  _84
REMARK   33  A    between atoms: _84  and  _85
REMARK   34  A    between atoms: _88  and  _90
REMARK   35  A    between atoms: _90  and  _91
REMARK   36  A    between atoms: _90  and  _93
REMARK   37  A    between atoms: _93  and  _94
REMARK   38  A    between atoms: _96  and  _98
REMARK   39  A    between atoms: _98  and  _99
REMARK   40  A    between atoms: _98  and  _101
REMARK   41  A    between atoms: _104  and  _106
REMARK   42  A    between atoms: _106  and  _107
REMARK   43  A    between atoms: _109  and  _111
REMARK   44  A    between atoms: _111  and  _112
REMARK   45  A    between atoms: _111  and  _114
REMARK   46  A    between atoms: _114  and  _115
REMARK   47  A    between atoms: _121  and  _123
REMARK   48  A    between atoms: _123  and  _124
REMARK   49  A    between atoms: _123  and  _126
REMARK   50  A    between atoms: _129  and  _131
REMARK   51  A    between atoms: _131  and  _132
REMARK   52  A    between atoms: _131  and  _134
REMARK   53  A    between atoms: _134  and  _135
REMARK   54  A    between atoms: _135  and  _136
REMARK   55  A    between atoms: _136  and  _137
REMARK   56  A    between atoms: _146  and  _148
REMARK   57  A    between atoms: _148  and  _149
REMARK   58  A    between atoms: _148  and  _151
REMARK   59  A    between atoms: _151  and  _152
REMARK   60  A    between atoms: _158  and  _160
REMARK   61  A    between atoms: _160  and  _161
REMARK   62  A    between atoms: _160  and  _163
REMARK   63  A    between atoms: _163  and  _164
REMARK   64  A    between atoms: _164  and  _165
REMARK   65  A    between atoms: _168  and  _170
REMARK   66  A    between atoms: _170  and  _171
REMARK   67  A    between atoms: _170  and  _173
REMARK   68  A    between atoms: _173  and  _174
REMARK   69  A    between atoms: _174  and  _175
REMARK   70  A    between atoms: _178  and  _180
REMARK   71  A    between atoms: _180  and  _181
REMARK   72  A    between atoms: _180  and  _183
REMARK   73  A    between atoms: _183  and  _184
REMARK   74  A    between atoms: _187  and  _189
REMARK   75  A    between atoms: _189  and  _190
REMARK   76  A    between atoms: _189  and  _192
REMARK   77  A    between atoms: _192  and  _193
REMARK   78  A    between atoms: _193  and  _194
REMARK   79  A    between atoms: _197  and  _199
REMARK   80  A    between atoms: _199  and  _200
REMARK   81  A    between atoms: _199  and  _202
REMARK   82  A    between atoms: _202  and  _203
REMARK   83  A    between atoms: _203  and  _204
REMARK   84  A    between atoms: _207  and  _209
REMARK   85  A    between atoms: _209  and  _210
REMARK   86  A    between atoms: _209  and  _212
REMARK   87  A    between atoms: _212  and  _213
REMARK   88  A    between atoms: _218  and  _219
REMARK   89  A    between atoms: _221  and  _223
REMARK   90  A    between atoms: _223  and  _224
REMARK   91  A    between atoms: _223  and  _226
REMARK   92  A    between atoms: _226  and  _227
REMARK   93  A    between atoms: _237  and  _239
REMARK   94  A    between atoms: _239  and  _240
REMARK   95  A    between atoms: _239  and  _242
REMARK   96  A    between atoms: _242  and  _243
REMARK   97  A    between atoms: _246  and  _248
REMARK   98  A    between atoms: _248  and  _249
REMARK   99  A    between atoms: _248  and  _251
REMARK  100  A    between atoms: _251  and  _252
REMARK  101  A    between atoms: _252  and  _253
REMARK  102  A    between atoms: _253  and  _254
REMARK  103  A    between atoms: _263  and  _265
REMARK  104  A    between atoms: _265  and  _266
REMARK  105  A    between atoms: _265  and  _268
REMARK  106  A    between atoms: _268  and  _269
REMARK  107  A    between atoms: _274  and  _276
REMARK  108  A    between atoms: _276  and  _277
REMARK  109  A    between atoms: _276  and  _279
REMARK  110  A    between atoms: _279  and  _280
REMARK  111  A    between atoms: _283  and  _285
REMARK  112  A    between atoms: _285  and  _286
REMARK  113  A    between atoms: _285  and  _288
REMARK  114  A    between atoms: _288  and  _289
REMARK  115  A    between atoms: _289  and  _290
REMARK  116  A    between atoms: _295  and  _297
REMARK  117  A    between atoms: _297  and  _298
REMARK  118  A    between atoms: _297  and  _300
REMARK  119  A    between atoms: _300  and  _301
REMARK  120  A    between atoms: _304  and  _306
REMARK  121  A    between atoms: _306  and  _307
REMARK  122  A    between atoms: _306  and  _309
REMARK  123  A    between atoms: _311  and  _313
REMARK  124  A    between atoms: _313  and  _314
REMARK  125  A    between atoms: _313  and  _316
REMARK  126  A    between atoms: _316  and  _317
REMARK  127  A    between atoms: _320  and  _322
REMARK  128  A    between atoms: _322  and  _323
REMARK  129  A    between atoms: _322  and  _325
REMARK  130  A    between atoms: _325  and  _326
REMARK  131  A    between atoms: _331  and  _333
REMARK  132  A    between atoms: _333  and  _334
REMARK  133  A    between atoms: _333  and  _336
REMARK  134  A    between atoms: _336  and  _337
REMARK  135  A    between atoms: _337  and  _338
REMARK  136  A    between atoms: _343  and  _345
REMARK  137  A    between atoms: _345  and  _346
REMARK  138  A    between atoms: _345  and  _348
REMARK  139  A    between atoms: _348  and  _349
REMARK  140  A    between atoms: _352  and  _354
REMARK  141  A    between atoms: _354  and  _355
REMARK  142  A    between atoms: _354  and  _357
REMARK  143  A    between atoms: _357  and  _358
REMARK  144  A    between atoms: _361  and  _363
REMARK  145  A    between atoms: _363  and  _364
REMARK  146  A    between atoms: _363  and  _366
REMARK  147  A    between atoms: _366  and  _367
REMARK  148  A    between atoms: _367  and  _368
REMARK  149  A    between atoms: _368  and  _369
REMARK  150  A    between atoms: _378  and  _380
REMARK  151  A    between atoms: _380  and  _381
REMARK  152  A    between atoms: _380  and  _383
REMARK  153  A    between atoms: _383  and  _384
REMARK  154  A    between atoms: _384  and  _385
REMARK  155  A    between atoms: _388  and  _390
REMARK  156  A    between atoms: _390  and  _391
REMARK  157  A    between atoms: _390  and  _393
REMARK  158  A    between atoms: _393  and  _394
REMARK  159  A    between atoms: _396  and  _398
REMARK  160  A    between atoms: _398  and  _399
REMARK  161  A    between atoms: _398  and  _401
REMARK  162  A    between atoms: _401  and  _402
REMARK  163  A    between atoms: _405  and  _407
REMARK  164  A    between atoms: _407  and  _408
REMARK  165  A    between atoms: _407  and  _410
REMARK  166  A    between atoms: _410  and  _411
REMARK  167  A    between atoms: _411  and  _412
REMARK  168  A    between atoms: _412  and  _413
REMARK  169  A    between atoms: _422  and  _424
REMARK  170  A    between atoms: _424  and  _425
REMARK  171  A    between atoms: _424  and  _427
REMARK  172  A    between atoms: _427  and  _428
REMARK  173  A    between atoms: _433  and  _435
REMARK  174  A    between atoms: _435  and  _436
REMARK  175  A    between atoms: _435  and  _438
REMARK  176  A    between atoms: _438  and  _439
REMARK  177  A    between atoms: _442  and  _444
REMARK  178  A    between atoms: _444  and  _445
REMARK  179  A    between atoms: _444  and  _447
REMARK  180  A    between atoms: _447  and  _448
REMARK  181  A    between atoms: _453  and  _454
REMARK  182  A    between atoms: _456  and  _458
REMARK  183  A    between atoms: _458  and  _459
REMARK  184  A    between atoms: _458  and  _461
REMARK  185  A    between atoms: _461  and  _462
REMARK  186  A    between atoms: _465  and  _467
REMARK  187  A    between atoms: _467  and  _468
REMARK  188  A    between atoms: _467  and  _470
REMARK  189  A    between atoms: _470  and  _471
REMARK  190  A    between atoms: _471  and  _472
REMARK  191  A    between atoms: _477  and  _479
REMARK  192  A    between atoms: _479  and  _480
REMARK  193  A    between atoms: _479  and  _482
REMARK  194  A    between atoms: _482  and  _483
REMARK  195  A    between atoms: _483  and  _484
REMARK  196  A    between atoms: _484  and  _485
REMARK  197  A    between atoms: _494  and  _496
REMARK  198  A    between atoms: _496  and  _497
REMARK  199  A    between atoms: _496  and  _499
REMARK  200  A    between atoms: _499  and  _500
REMARK  201  A    between atoms: _505  and  _506
REMARK  202  A    between atoms: _508  and  _510
REMARK  203  A    between atoms: _510  and  _511
REMARK  204  A    between atoms: _513  and  _515
REMARK  205  A    between atoms: _515  and  _516
REMARK  206  A    between atoms: _515  and  _518
REMARK  207  A    between atoms: _518  and  _519
REMARK  208  A    between atoms: _524  and  _526
REMARK  209  A    between atoms: _526  and  _527
REMARK  210  A    between atoms: _526  and  _529
REMARK  211  A    between atoms: _529  and  _530
REMARK  212  A    between atoms: _530  and  _531
REMARK  213  A    between atoms: _536  and  _538
REMARK  214  A    between atoms: _538  and  _539
REMARK  215  A    between atoms: _538  and  _541
REMARK  216  A    between atoms: _541  and  _542
REMARK  217  A    between atoms: _548  and  _550
REMARK  218  A    between atoms: _550  and  _551
REMARK  219  A    between atoms: _554  and  _556
REMARK  220  A    between atoms: _556  and  _557
REMARK  221  A    between atoms: _556  and  _559
REMARK  222  A    between atoms: _559  and  _560
REMARK  223  A    between atoms: _565  and  _566
REMARK  224  A    between atoms: _568  and  _570
REMARK  225  A    between atoms: _570  and  _571
REMARK  226  A    between atoms: _570  and  _573
REMARK  227  A    between atoms: _573  and  _574
REMARK  228  A    between atoms: _579  and  _580
REMARK  229  A    between atoms: _582  and  _584
REMARK  230  A    between atoms: _584  and  _585
REMARK  231  A    between atoms: _584  and  _587
REMARK  232  A    between atoms: _587  and  _588
REMARK  233  A    between atoms: _591  and  _593
REMARK  234  A    between atoms: _593  and  _594
REMARK  235  A    between atoms: _593  and  _596
REMARK  236  A    between atoms: _596  and  _597
REMARK  237  A    between atoms: _607  and  _609
REMARK  238  A    between atoms: _609  and  _610
REMARK  239  A    between atoms: _613  and  _615
REMARK  240  A    between atoms: _615  and  _616
REMARK  241  A    between atoms: _619  and  _621
REMARK  242  A    between atoms: _621  and  _622
REMARK  243  A    between atoms: _621  and  _624
REMARK  244  A    between atoms: _624  and  _625
REMARK  245  A    between atoms: _625  and  _626
REMARK  246  A    between atoms: _631  and  _633
REMARK  247  A    between atoms: _633  and  _634
REMARK  248  A    between atoms: _633  and  _636
REMARK  249  A    between atoms: _636  and  _637
REMARK  250  A    between atoms: _640  and  _642
REMARK  251  A    between atoms: _642  and  _643
REMARK  252  A    between atoms: _642  and  _645
REMARK  253  A    between atoms: _645  and  _646
REMARK  254  A    between atoms: _649  and  _651
REMARK  255  A    between atoms: _651  and  _652
REMARK  256  A    between atoms: _651  and  _654
REMARK  257  A    between atoms: _654  and  _655
REMARK  258  A    between atoms: _655  and  _656
REMARK  259  A    between atoms: _661  and  _663
REMARK  260  A    between atoms: _663  and  _664
REMARK  261  A    between atoms: _663  and  _666
REMARK  262  A    between atoms: _666  and  _667
REMARK  263  A    between atoms: _667  and  _668
REMARK  264  A    between atoms: _668  and  _669
REMARK  265  A    between atoms: _678  and  _680
REMARK  266  A    between atoms: _680  and  _681
REMARK  267  A    between atoms: _680  and  _683
REMARK  268  A    between atoms: _683  and  _684
REMARK  269  A    between atoms: _684  and  _685
REMARK  270  A    between atoms: _685  and  _686
REMARK  271  A    between atoms: _686  and  _687
REMARK  272  A    between atoms: _691  and  _693
REMARK  273  A    between atoms: _693  and  _694
REMARK  274  A    between atoms: _693  and  _696
REMARK  275  A    between atoms: _696  and  _697
REMARK  276  A    between atoms: _707  and  _709
REMARK  277  A    between atoms: _709  and  _710
REMARK  278  A    between atoms: _713  and  _715
REMARK  279  A    between atoms: _715  and  _716
REMARK  280  A    between atoms: _719  and  _721
REMARK  281  A    between atoms: _721  and  _722
REMARK  282  A    between atoms: _721  and  _724
REMARK  283  A    between atoms: _724  and  _725
REMARK  284  A    between atoms: _725  and  _726
REMARK  285  A    between atoms: _726  and  _727
REMARK  286  A    between atoms: _736  and  _738
REMARK  287  A    between atoms: _738  and  _739
REMARK  288  A    between atoms: _738  and  _741
REMARK  289  A    between atoms: _744  and  _746
REMARK  290  A    between atoms: _746  and  _747
REMARK  291  A    between atoms: _750  and  _752
REMARK  292  A    between atoms: _752  and  _753
REMARK  293  A    between atoms: _752  and  _755
REMARK  294  A    between atoms: _755  and  _756
REMARK  295  A    between atoms: _756  and  _757
REMARK  296  A    between atoms: _760  and  _762
REMARK  297  A    between atoms: _762  and  _763
REMARK  298  A    between atoms: _762  and  _765
REMARK  299  A    between atoms: _765  and  _766
REMARK  300  A    between atoms: _766  and  _767
REMARK  301  A    between atoms: _772  and  _774
REMARK  302  A    between atoms: _774  and  _775
REMARK  303  A    between atoms: _774  and  _777
REMARK  304  A    between atoms: _777  and  _778
REMARK  305  A    between atoms: _781  and  _783
REMARK  306  A    between atoms: _783  and  _784
REMARK  307  A    between atoms: _783  and  _786
REMARK  308  A    between atoms: _786  and  _787
REMARK  309  A    between atoms: _787  and  _788
REMARK  310  A    between atoms: _788  and  _789
REMARK  311  A    between atoms: _798  and  _800
REMARK  312  A    between atoms: _800  and  _801
REMARK  313  A    between atoms: _800  and  _803
REMARK  314  A    between atoms: _803  and  _804
REMARK  315  A    between atoms: _807  and  _809
REMARK  316  A    between atoms: _809  and  _810
REMARK  317  A    between atoms: _809  and  _812
REMARK  318  A    between atoms: _812  and  _813
REMARK  319  A    between atoms: _818  and  _819
REMARK  320  A    between atoms: _821  and  _823
REMARK  321  A    between atoms: _823  and  _824
REMARK  322  A    between atoms: _823  and  _826
REMARK  323  A    between atoms: _826  and  _827
REMARK  324  A    between atoms: _830  and  _832
REMARK  325  A    between atoms: _832  and  _833
REMARK  326  A    between atoms: _832  and  _835
REMARK  327  A    between atoms: _835  and  _836
REMARK  328  A    between atoms: _839  and  _841
REMARK  329  A    between atoms: _841  and  _842
REMARK  330  A    between atoms: _841  and  _844
REMARK  331  A    between atoms: _846  and  _848
REMARK  332  A    between atoms: _848  and  _849
REMARK  333  A    between atoms: _848  and  _851
REMARK  334  A    between atoms: _854  and  _856
REMARK  335  A    between atoms: _856  and  _857
REMARK  336  A    between atoms: _856  and  _859
REMARK  337  A    between atoms: _859  and  _860
REMARK  338  A    between atoms: _860  and  _861
REMARK  339  A    between atoms: _864  and  _866
REMARK  340  A    between atoms: _866  and  _867
REMARK  341  A    between atoms: _866  and  _869
REMARK  342  A    between atoms: _869  and  _870
REMARK  343  A    between atoms: _880  and  _882
REMARK  344  A    between atoms: _882  and  _883
REMARK  345  A    between atoms: _882  and  _885
REMARK  346  A    between atoms: _885  and  _886
REMARK  347  A    between atoms: _889  and  _891
REMARK  348  A    between atoms: _891  and  _892
REMARK  349  A    between atoms: _891  and  _894
REMARK  350  A    between atoms: _894  and  _895
REMARK  351  A    between atoms: _900  and  _901
REMARK                            x       y       z     vdW  Elec       q    Type
REMARK                         _______ _______ _______ _____ _____    ______ ____
ROOT
ATOM      1  CA  ARG A   3      12.140   3.227  30.925  0.00  0.00    +0.149 C 
ENDROOT
BRANCH   1   3
ATOM      2  C   VAL A   2      13.784   5.006  31.074  0.00  0.00    +0.241 C 
ATOM      3  N   ARG A   3      13.251   3.899  31.577  0.00  0.00    -0.297 N 
ATOM      4  H   ARG A   3      13.638   3.504  32.458  0.00  0.00    +0.150 HD
ATOM      5  O   VAL A   2      13.446   5.487  29.990  0.00  0.00    -0.273 OA
BRANCH   2   6
ATOM      6  CA  VAL A   2      14.852   5.673  31.930  0.00  0.00    +0.148 C 
BRANCH   6   9
ATOM      7  C   PHE A   1      16.986   6.709  31.422  0.00  0.00    +0.239 C 
ATOM      8  O   PHE A   1      17.525   6.107  32.350  0.00  0.00    -0.274 OA
ATOM      9  N   VAL A   2      15.686   6.599  31.164  0.00  0.00    -0.297 N 
ATOM     10  H   VAL A   2      15.259   7.176  30.412  0.00  0.00    +0.150 HD
BRANCH   7  11
ATOM     11  CA  PHE A   1      17.815   7.622  30.512  0.00  0.00    +0.149 C 
BRANCH  11  12
ATOM     12  N   PHE A   1      17.212   7.920  29.213  0.00  0.00    -0.238 NA
ATOM     13  H   PHE A   1      16.247   8.304  29.164  0.00  0.00    +0.142 HD
ENDBRANCH  11  12
BRANCH  11  14
ATOM     14  CB  PHE A   1      18.246   8.906  31.244  0.00  0.00    +0.053 C 
BRANCH  14  15
ATOM     15  CG  PHE A   1      17.104   9.740  31.755  0.00  0.00    -0.020 A 
ATOM     16  CD2 PHE A   1      16.700   9.649  33.077  0.00  0.00    -0.004 A 
ATOM     17  CE2 PHE A   1      15.656  10.421  33.557  0.00  0.00    -0.000 A 
ATOM     18  CZ  PHE A   1      15.009  11.304  32.716  0.00  0.00    -0.000 A 
ATOM     19  CE1 PHE A   1      15.410  11.415  31.397  0.00  0.00    -0.000 A 
ATOM     20  CD1 PHE A   1      16.454  10.636  30.923  0.00  0.00    -0.004 A 
ENDBRANCH  14  15
ENDBRANCH  11  14
ENDBRANCH   7  11
ENDBRANCH   6   9
BRANCH   6  21
ATOM     21  CB  VAL A   2      14.147   6.360  33.126  0.00  0.00    +0.027 C 
ATOM     22  CG2 VAL A   2      15.133   6.647  34.249  0.00  0.00    +0.002 C 
ATOM     23  CG1 VAL A   2      13.430   7.633  32.675  0.00  0.00    +0.002 C 
ENDBRANCH   6  21
ENDBRANCH   2   6
ENDBRANCH   1   3
BRANCH   1  24
ATOM     24  C   ARG A   3      11.274   2.504  31.948  0.00  0.00    +0.241 C 
ATOM     25  O   ARG A   3      11.759   2.079  32.998  0.00  0.00    -0.273 OA
ATOM     26  N   PHE A   4       9.991   2.373  31.630  0.00  0.00    -0.298 N 
ATOM     27  H   PHE A   4       9.640   2.836  30.768  0.00  0.00    +0.150 HD
BRANCH  26  28
ATOM     28  CA  PHE A   4       9.057   1.605  32.443  0.00  0.00    +0.141 C 
BRANCH  28  29
ATOM     29  C   PHE A   4       8.096   0.882  31.509  0.00  0.00    +0.227 C 
ATOM     30  O   PHE A   4       7.664   1.440  30.500  0.00  0.00    -0.286 OA
ENDBRANCH  28  29
BRANCH  28  31
ATOM     31  CB  PHE A   4       8.287   2.519  33.398  0.00  0.00    +0.054 C 
BRANCH  31  32
ATOM     32  CG  PHE A   4       7.237   1.808  34.207  0.00  0.00    -0.020 A 
ATOM     33  CD2 PHE A   4       7.526   1.320  35.471  0.00  0.00    -0.004 A 
ATOM     34  CE2 PHE A   4       6.555   0.668  36.218  0.00  0.00    -0.000 A 
ATOM     35  CZ  PHE A   4       5.283   0.497  35.701  0.00  0.00    -0.000 A 
ATOM     36  CE1 PHE A   4       4.983   0.979  34.441  0.00  0.00    -0.000 A 
ATOM     37  CD1 PHE A   4       5.957   1.631  33.702  0.00  0.00    -0.004 A 
ENDBRANCH  31  32
ENDBRANCH  28  31
ENDBRANCH  26  28
ENDBRANCH   1  24
BRANCH   1  38
ATOM     38  CB  ARG A   3      12.658   2.228  29.895  0.00  0.00    +0.033 C 
BRANCH  38  39
ATOM     39  CG  ARG A   3      13.366   1.044  30.521  0.00  0.00    +0.045 C 
BRANCH  39  40
ATOM     40  CD  ARG A   3      12.675  -0.251  30.150  0.00  0.00    +0.174 C 
BRANCH  40  41
ATOM     41  NE  ARG A   3      13.269  -0.876  28.977  0.00  0.00    -0.265 N 
ATOM     42  CZ  ARG A   3      14.282  -1.735  29.027  0.00  0.00    +0.342 C 
ATOM     43  NH2 ARG A   3      14.812  -2.061  30.195  0.00  0.00    -0.292 N 
ATOM     44 HH21 ARG A   3      14.436  -1.645  31.071  0.00  0.00    +0.255 HD
ATOM     45 HH22 ARG A   3      15.605  -2.733  30.237  0.00  0.00    +0.255 HD
ATOM     46  NH1 ARG A   3      14.768  -2.267  27.912  0.00  0.00    -0.292 N 
ATOM     47 HH11 ARG A   3      15.561  -2.938  27.959  0.00  0.00    +0.255 HD
ATOM     48 HH12 ARG A   3      14.356  -2.012  26.992  0.00  0.00    +0.255 HD
ATOM     49  HE  ARG A   3      12.877  -0.636  28.044  0.00  0.00    +0.259 HD
ENDBRANCH  40  41
ENDBRANCH  39  40
ENDBRANCH  38  39
ENDBRANCH   1  38
TORSDOF 17
REMARK  Name = ../refined-set-2016/4o2c/4o2c_pocket.pdb
REMARK  351 active torsions:
REMARK  status: ('A' for Active; 'I' for Inactive)
REMARK    1  A    between atoms: _1  and  _3
REMARK    2  A    between atoms: _3  and  _4
REMARK    3  A    between atoms: _3  and  _6
REMARK    4  A    between atoms: _6  and  _7
REMARK    5  A    between atoms: _7  and  _8
REMARK    6  A    between atoms: _10  and  _12
REMARK    7  A    between atoms: _12  and  _13
REMARK    8  A    between atoms: _12  and  _15
REMARK    9  A    between atoms: _15  and  _16
REMARK   10  A    between atoms: _16  and  _17
REMARK   11  A    between atoms: _17  and  _18
REMARK   12  A    between atoms: _27  and  _29
REMARK   13  A    between atoms: _29  and  _30
REMARK   14  A    between atoms: _29  and  _32
REMARK   15  A    between atoms: _32  and  _33
REMARK   16  A    between atoms: _38  and  _39
REMARK   17  A    between atoms: _41  and  _43
REMARK   18  A    between atoms: _43  and  _44
REMARK   19  A    between atoms: _43  and  _46
REMARK   20  A    between atoms: _46  and  _47
REMARK   21  A    between atoms: _53  and  _55
REMARK   22  A    between atoms: _55  and  _56
REMARK   23  A    between atoms: _55  and  _58
REMARK   24  A    between atoms: _58  and  _59
REMARK   25  A    between atoms: _64  and  _65
REMARK   26  A    between atoms: _67  and  _69
REMARK   27  A    between atoms: _69  and  _70
REMARK   28  A    between atoms: _69  and  _72
REMARK   29  A    between atoms: _72  and  _73
REMARK   30  A    between atoms: _79  and  _81
REMARK   31  A    between atoms: _81  and  _82
REMARK   32  A    between atoms: _81  and  _84
REMARK   33  A    between atoms: _84  and  _85
REMARK   34  A    between atoms: _88  and  _90
REMARK   35  A    between atoms: _90  and  _91
REMARK   36  A    between atoms: _90  and  _93
REMARK   37  A    between atoms: _93  and  _94
REMARK   38  A    between atoms: _96  and  _98
REMARK   39  A    between atoms: _98  and  _99
REMARK   40  A    between atoms: _98  and  _101
REMARK   41  A    between atoms: _104  and  _106
REMARK   42  A    between atoms: _106  and  _107
REMARK   43  A    between atoms: _109  and  _111
REMARK   44  A    between atoms: _111  and  _112
REMARK   45  A    between atoms: _111  and  _114
REMARK   46  A    between atoms: _114  and  _115
REMARK   47  A    between atoms: _121  and  _123
REMARK   48  A    between atoms: _123  and  _124
REMARK   49  A    between atoms: _123  and  _126
REMARK   50  A    between atoms: _129  and  _131
REMARK   51  A    between atoms: _131  and  _132
REMARK   52  A    between atoms: _131  and  _134
REMARK   53  A    between atoms: _134  and  _135
REMARK   54  A    between atoms: _135  and  _136
REMARK   55  A    between atoms: _136  and  _137
REMARK   56  A    between atoms: _146  and  _148
REMARK   57  A    between atoms: _148  and  _149
REMARK   58  A    between atoms: _148  and  _151
REMARK   59  A    between atoms: _151  and  _152
REMARK   60  A    between atoms: _158  and  _160
REMARK   61  A    between atoms: _160  and  _161
REMARK   62  A    between atoms: _160  and  _163
REMARK   63  A    between atoms: _163  and  _164
REMARK   64  A    between atoms: _164  and  _165
REMARK   65  A    between atoms: _168  and  _170
REMARK   66  A    between atoms: _170  and  _171
REMARK   67  A    between atoms: _170  and  _173
REMARK   68  A    between atoms: _173  and  _174
REMARK   69  A    between atoms: _174  and  _175
REMARK   70  A    between atoms: _178  and  _180
REMARK   71  A    between atoms: _180  and  _181
REMARK   72  A    between atoms: _180  and  _183
REMARK   73  A    between atoms: _183  and  _184
REMARK   74  A    between atoms: _187  and  _189
REMARK   75  A    between atoms: _189  and  _190
REMARK   76  A    between atoms: _189  and  _192
REMARK   77  A    between atoms: _192  and  _193
REMARK   78  A    between atoms: _193  and  _194
REMARK   79  A    between atoms: _197  and  _199
REMARK   80  A    between atoms: _199  and  _200
REMARK   81  A    between atoms: _199  and  _202
REMARK   82  A    between atoms: _202  and  _203
REMARK   83  A    between atoms: _203  and  _204
REMARK   84  A    between atoms: _207  and  _209
REMARK   85  A    between atoms: _209  and  _210
REMARK   86  A    between atoms: _209  and  _212
REMARK   87  A    between atoms: _212  and  _213
REMARK   88  A    between atoms: _218  and  _219
REMARK   89  A    between atoms: _221  and  _223
REMARK   90  A    between atoms: _223  and  _224
REMARK   91  A    between atoms: _223  and  _226
REMARK   92  A    between atoms: _226  and  _227
REMARK   93  A    between atoms: _237  and  _239
REMARK   94  A    between atoms: _239  and  _240
REMARK   95  A    between atoms: _239  and  _242
REMARK   96  A    between atoms: _242  and  _243
REMARK   97  A    between atoms: _246  and  _248
REMARK   98  A    between atoms: _248  and  _249
REMARK   99  A    between atoms: _248  and  _251
REMARK  100  A    between atoms: _251  and  _252
REMARK  101  A    between atoms: _252  and  _253
REMARK  102  A    between atoms: _253  and  _254
REMARK  103  A    between atoms: _263  and  _265
REMARK  104  A    between atoms: _265  and  _266
REMARK  105  A    between atoms: _265  and  _268
REMARK  106  A    between atoms: _268  and  _269
REMARK  107  A    between atoms: _274  and  _276
REMARK  108  A    between atoms: _276  and  _277
REMARK  109  A    between atoms: _276  and  _279
REMARK  110  A    between atoms: _279  and  _280
REMARK  111  A    between atoms: _283  and  _285
REMARK  112  A    between atoms: _285  and  _286
REMARK  113  A    between atoms: _285  and  _288
REMARK  114  A    between atoms: _288  and  _289
REMARK  115  A    between atoms: _289  and  _290
REMARK  116  A    between atoms: _295  and  _297
REMARK  117  A    between atoms: _297  and  _298
REMARK  118  A    between atoms: _297  and  _300
REMARK  119  A    between atoms: _300  and  _301
REMARK  120  A    between atoms: _304  and  _306
REMARK  121  A    between atoms: _306  and  _307
REMARK  122  A    between atoms: _306  and  _309
REMARK  123  A    between atoms: _311  and  _313
REMARK  124  A    between atoms: _313  and  _314
REMARK  125  A    between atoms: _313  and  _316
REMARK  126  A    between atoms: _316  and  _317
REMARK  127  A    between atoms: _320  and  _322
REMARK  128  A    between atoms: _322  and  _323
REMARK  129  A    between atoms: _322  and  _325
REMARK  130  A    between atoms: _325  and  _326
REMARK  131  A    between atoms: _331  and  _333
REMARK  132  A    between atoms: _333  and  _334
REMARK  133  A    between atoms: _333  and  _336
REMARK  134  A    between atoms: _336  and  _337
REMARK  135  A    between atoms: _337  and  _338
REMARK  136  A    between atoms: _343  and  _345
REMARK  137  A    between atoms: _345  and  _346
REMARK  138  A    between atoms: _345  and  _348
REMARK  139  A    between atoms: _348  and  _349
REMARK  140  A    between atoms: _352  and  _354
REMARK  141  A    between atoms: _354  and  _355
REMARK  142  A    between atoms: _354  and  _357
REMARK  143  A    between atoms: _357  and  _358
REMARK  144  A    between atoms: _361  and  _363
REMARK  145  A    between atoms: _363  and  _364
REMARK  146  A    between atoms: _363  and  _366
REMARK  147  A    between atoms: _366  and  _367
REMARK  148  A    between atoms: _367  and  _368
REMARK  149  A    between atoms: _368  and  _369
REMARK  150  A    between atoms: _378  and  _380
REMARK  151  A    between atoms: _380  and  _381
REMARK  152  A    between atoms: _380  and  _383
REMARK  153  A    between atoms: _383  and  _384
REMARK  154  A    between atoms: _384  and  _385
REMARK  155  A    between atoms: _388  and  _390
REMARK  156  A    between atoms: _390  and  _391
REMARK  157  A    between atoms: _390  and  _393
REMARK  158  A    between atoms: _393  and  _394
REMARK  159  A    between atoms: _396  and  _398
REMARK  160  A    between atoms: _398  and  _399
REMARK  161  A    between atoms: _398  and  _401
REMARK  162  A    between atoms: _401  and  _402
REMARK  163  A    between atoms: _405  and  _407
REMARK  164  A    between atoms: _407  and  _408
REMARK  165  A    between atoms: _407  and  _410
REMARK  166  A    between atoms: _410  and  _411
REMARK  167  A    between atoms: _411  and  _412
REMARK  168  A    between atoms: _412  and  _413
REMARK  169  A    between atoms: _422  and  _424
REMARK  170  A    between atoms: _424  and  _425
REMARK  171  A    between atoms: _424  and  _427
REMARK  172  A    between atoms: _427  and  _428
REMARK  173  A    between atoms: _433  and  _435
REMARK  174  A    between atoms: _435  and  _436
REMARK  175  A    between atoms: _435  and  _438
REMARK  176  A    between atoms: _438  and  _439
REMARK  177  A    between atoms: _442  and  _444
REMARK  178  A    between atoms: _444  and  _445
REMARK  179  A    between atoms: _444  and  _447
REMARK  180  A    between atoms: _447  and  _448
REMARK  181  A    between atoms: _453  and  _454
REMARK  182  A    between atoms: _456  and  _458
REMARK  183  A    between atoms: _458  and  _459
REMARK  184  A    between atoms: _458  and  _461
REMARK  185  A    between atoms: _461  and  _462
REMARK  186  A    between atoms: _465  and  _467
REMARK  187  A    between atoms: _467  and  _468
REMARK  188  A    between atoms: _467  and  _470
REMARK  189  A    between atoms: _470  and  _471
REMARK  190  A    between atoms: _471  and  _472
REMARK  191  A    between atoms: _477  and  _479
REMARK  192  A    between atoms: _479  and  _480
REMARK  193  A    between atoms: _479  and  _482
REMARK  194  A    between atoms: _482  and  _483
REMARK  195  A    between atoms: _483  and  _484
REMARK  196  A    between atoms: _484  and  _485
REMARK  197  A    between atoms: _494  and  _496
REMARK  198  A    between atoms: _496  and  _497
REMARK  199  A    between atoms: _496  and  _499
REMARK  200  A    between atoms: _499  and  _500
REMARK  201  A    between atoms: _505  and  _506
REMARK  202  A    between atoms: _508  and  _510
REMARK  203  A    between atoms: _510  and  _511
REMARK  204  A    between atoms: _513  and  _515
REMARK  205  A    between atoms: _515  and  _516
REMARK  206  A    between atoms: _515  and  _518
REMARK  207  A    between atoms: _518  and  _519
REMARK  208  A    between atoms: _524  and  _526
REMARK  209  A    between atoms: _526  and  _527
REMARK  210  A    between atoms: _526  and  _529
REMARK  211  A    between atoms: _529  and  _530
REMARK  212  A    between atoms: _530  and  _531
REMARK  213  A    between atoms: _536  and  _538
REMARK  214  A    between atoms: _538  and  _539
REMARK  215  A    between atoms: _538  and  _541
REMARK  216  A    between atoms: _541  and  _542
REMARK  217  A    between atoms: _548  and  _550
REMARK  218  A    between atoms: _550  and  _551
REMARK  219  A    between atoms: _554  and  _556
REMARK  220  A    between atoms: _556  and  _557
REMARK  221  A    between atoms: _556  and  _559
REMARK  222  A    between atoms: _559  and  _560
REMARK  223  A    between atoms: _565  and  _566
REMARK  224  A    between atoms: _568  and  _570
REMARK  225  A    between atoms: _570  and  _571
REMARK  226  A    between atoms: _570  and  _573
REMARK  227  A    between atoms: _573  and  _574
REMARK  228  A    between atoms: _579  and  _580
REMARK  229  A    between atoms: _582  and  _584
REMARK  230  A    between atoms: _584  and  _585
REMARK  231  A    between atoms: _584  and  _587
REMARK  232  A    between atoms: _587  and  _588
REMARK  233  A    between atoms: _591  and  _593
REMARK  234  A    between atoms: _593  and  _594
REMARK  235  A    between atoms: _593  and  _596
REMARK  236  A    between atoms: _596  and  _597
REMARK  237  A    between atoms: _607  and  _609
REMARK  238  A    between atoms: _609  and  _610
REMARK  239  A    between atoms: _613  and  _615
REMARK  240  A    between atoms: _615  and  _616
REMARK  241  A    between atoms: _619  and  _621
REMARK  242  A    between atoms: _621  and  _622
REMARK  243  A    between atoms: _621  and  _624
REMARK  244  A    between atoms: _624  and  _625
REMARK  245  A    between atoms: _625  and  _626
REMARK  246  A    between atoms: _631  and  _633
REMARK  247  A    between atoms: _633  and  _634
REMARK  248  A    between atoms: _633  and  _636
REMARK  249  A    between atoms: _636  and  _637
REMARK  250  A    between atoms: _640  and  _642
REMARK  251  A    between atoms: _642  and  _643
REMARK  252  A    between atoms: _642  and  _645
REMARK  253  A    between atoms: _645  and  _646
REMARK  254  A    between atoms: _649  and  _651
REMARK  255  A    between atoms: _651  and  _652
REMARK  256  A    between atoms: _651  and  _654
REMARK  257  A    between atoms: _654  and  _655
REMARK  258  A    between atoms: _655  and  _656
REMARK  259  A    between atoms: _661  and  _663
REMARK  260  A    between atoms: _663  and  _664
REMARK  261  A    between atoms: _663  and  _666
REMARK  262  A    between atoms: _666  and  _667
REMARK  263  A    between atoms: _667  and  _668
REMARK  264  A    between atoms: _668  and  _669
REMARK  265  A    between atoms: _678  and  _680
REMARK  266  A    between atoms: _680  and  _681
REMARK  267  A    between atoms: _680  and  _683
REMARK  268  A    between atoms: _683  and  _684
REMARK  269  A    between atoms: _684  and  _685
REMARK  270  A    between atoms: _685  and  _686
REMARK  271  A    between atoms: _686  and  _687
REMARK  272  A    between atoms: _691  and  _693
REMARK  273  A    between atoms: _693  and  _694
REMARK  274  A    between atoms: _693  and  _696
REMARK  275  A    between atoms: _696  and  _697
REMARK  276  A    between atoms: _707  and  _709
REMARK  277  A    between atoms: _709  and  _710
REMARK  278  A    between atoms: _713  and  _715
REMARK  279  A    between atoms: _715  and  _716
REMARK  280  A    between atoms: _719  and  _721
REMARK  281  A    between atoms: _721  and  _722
REMARK  282  A    between atoms: _721  and  _724
REMARK  283  A    between atoms: _724  and  _725
REMARK  284  A    between atoms: _725  and  _726
REMARK  285  A    between atoms: _726  and  _727
REMARK  286  A    between atoms: _736  and  _738
REMARK  287  A    between atoms: _738  and  _739
REMARK  288  A    between atoms: _738  and  _741
REMARK  289  A    between atoms: _744  and  _746
REMARK  290  A    between atoms: _746  and  _747
REMARK  291  A    between atoms: _750  and  _752
REMARK  292  A    between atoms: _752  and  _753
REMARK  293  A    between atoms: _752  and  _755
REMARK  294  A    between atoms: _755  and  _756
REMARK  295  A    between atoms: _756  and  _757
REMARK  296  A    between atoms: _760  and  _762
REMARK  297  A    between atoms: _762  and  _763
REMARK  298  A    between atoms: _762  and  _765
REMARK  299  A    between atoms: _765  and  _766
REMARK  300  A    between atoms: _766  and  _767
REMARK  301  A    between atoms: _772  and  _774
REMARK  302  A    between atoms: _774  and  _775
REMARK  303  A    between atoms: _774  and  _777
REMARK  304  A    between atoms: _777  and  _778
REMARK  305  A    between atoms: _781  and  _783
REMARK  306  A    between atoms: _783  and  _784
REMARK  307  A    between atoms: _783  and  _786
REMARK  308  A    between atoms: _786  and  _787
REMARK  309  A    between atoms: _787  and  _788
REMARK  310  A    between atoms: _788  and  _789
REMARK  311  A    between atoms: _798  and  _800
REMARK  312  A    between atoms: _800  and  _801
REMARK  313  A    between atoms: _800  and  _803
REMARK  314  A    between atoms: _803  and  _804
REMARK  315  A    between atoms: _807  and  _809
REMARK  316  A    between atoms: _809  and  _810
REMARK  317  A    between atoms: _809  and  _812
REMARK  318  A    between atoms: _812  and  _813
REMARK  319  A    between atoms: _818  and  _819
REMARK  320  A    between atoms: _821  and  _823
REMARK  321  A    between atoms: _823  and  _824
REMARK  322  A    between atoms: _823  and  _826
REMARK  323  A    between atoms: _826  and  _827
REMARK  324  A    between atoms: _830  and  _832
REMARK  325  A    between atoms: _832  and  _833
REMARK  326  A    between atoms: _832  and  _835
REMARK  327  A    between atoms: _835  and  _836
REMARK  328  A    between atoms: _839  and  _841
REMARK  329  A    between atoms: _841  and  _842
REMARK  330  A    between atoms: _841  and  _844
REMARK  331  A    between atoms: _846  and  _848
REMARK  332  A    between atoms: _848  and  _849
REMARK  333  A    between atoms: _848  and  _851
REMARK  334  A    between atoms: _854  and  _856
REMARK  335  A    between atoms: _856  and  _857
REMARK  336  A    between atoms: _856  and  _859
REMARK  337  A    between atoms: _859  and  _860
REMARK  338  A    between atoms: _860  and  _861
REMARK  339  A    between atoms: _864  and  _866
REMARK  340  A    between atoms: _866  and  _867
REMARK  341  A    between atoms: _866  and  _869
REMARK  342  A    between atoms: _869  and  _870
REMARK  343  A    between atoms: _880  and  _882
REMARK  344  A    between atoms: _882  and  _883
REMARK  345  A    between atoms: _882  and  _885
REMARK  346  A    between atoms: _885  and  _886
REMARK  347  A    between atoms: _889  and  _891
REMARK  348  A    between atoms: _891  and  _892
REMARK  349  A    between atoms: _891  and  _894
REMARK  350  A    between atoms: _894  and  _895
REMARK  351  A    between atoms: _900  and  _901
REMARK                            x       y       z     vdW  Elec       q    Type
REMARK                         _______ _______ _______ _____ _____    ______ ____
ROOT
ATOM      1  C   GLU A   1      12.989   1.791  36.443  0.00  0.00    +0.238 C 
ATOM      2  O   GLU A   1      13.589   1.488  37.475  0.00  0.00    -0.274 OA
ATOM      3  N   GLU A   2      13.542   1.705  35.236  0.00  0.00    -0.298 N 
ATOM      4  H   GLU A   2      13.006   2.037  34.409  0.00  0.00    +0.150 HD
ENDROOT
BRANCH   1   5
ATOM      5  CA  GLU A   1      11.540   2.265  36.504  0.00  0.00    +0.145 C 
BRANCH   5   6
ATOM      6  N   GLU A   1      10.788   1.251  37.227  0.00  0.00    -0.238 NA
ATOM      7  H   GLU A   1      10.371   1.478  38.152  0.00  0.00    +0.142 HD
ENDBRANCH   5   6
BRANCH   5   8
ATOM      8  CB  GLU A   1      11.450   3.611  37.219  0.00  0.00    +0.038 C 
BRANCH   8   9
ATOM      9  CG  GLU A   1      12.258   4.723  36.569  0.00  0.00    +0.116 C 
BRANCH   9  10
ATOM     10  CD  GLU A   1      11.491   5.445  35.482  0.00  0.00    +0.365 C 
ATOM     11  OE2 GLU A   1      11.573   6.690  35.427  0.00  0.00    -0.246 OA
ATOM     12  OE1 GLU A   1      10.801   4.772  34.688  0.00  0.00    -0.246 OA
ENDBRANCH   9  10
ENDBRANCH   8   9
ENDBRANCH   5   8
ENDBRANCH   1   5
BRANCH   3  13
ATOM     13  CA  GLU A   2      14.882   1.156  35.041  0.00  0.00    +0.137 C 
BRANCH  13  14
ATOM     14  C   GLU A   2      15.816   2.146  34.359  0.00  0.00    +0.227 C 
ATOM     15  O   GLU A   2      15.392   2.909  33.496  0.00  0.00    -0.286 OA
ENDBRANCH  13  14
BRANCH  13  16
ATOM     16  CB  GLU A   2      14.810  -0.129  34.214  0.00  0.00    +0.039 C 
BRANCH  16  17
ATOM     17  CG  GLU A   2      14.039  -1.252  34.885  0.00  0.00    +0.116 C 
BRANCH  17  18
ATOM     18  CD  GLU A   2      13.973  -2.501  34.033  0.00  0.00    +0.365 C 
ATOM     19  OE2 GLU A   2      13.724  -3.590  34.591  0.00  0.00    -0.246 OA
ATOM     20  OE1 GLU A   2      14.168  -2.394  32.804  0.00  0.00    -0.246 OA
ENDBRANCH  17  18
ENDBRANCH  16  17
ENDBRANCH  13  16
ENDBRANCH   3  13
TORSDOF 10
REMARK  Name = ../refined-set-2016/4o2c/4o2c_pocket.pdb
REMARK  351 active torsions:
REMARK  status: ('A' for Active; 'I' for Inactive)
REMARK    1  A    between atoms: _1  and  _3
REMARK    2  A    between atoms: _3  and  _4
REMARK    3  A    between atoms: _3  and  _6
REMARK    4  A    between atoms: _6  and  _7
REMARK    5  A    between atoms: _7  and  _8
REMARK    6  A    between atoms: _10  and  _12
REMARK    7  A    between atoms: _12  and  _13
REMARK    8  A    between atoms: _12  and  _15
REMARK    9  A    between atoms: _15  and  _16
REMARK   10  A    between atoms: _16  and  _17
REMARK   11  A    between atoms: _17  and  _18
REMARK   12  A    between atoms: _27  and  _29
REMARK   13  A    between atoms: _29  and  _30
REMARK   14  A    between atoms: _29  and  _32
REMARK   15  A    between atoms: _32  and  _33
REMARK   16  A    between atoms: _38  and  _39
REMARK   17  A    between atoms: _41  and  _43
REMARK   18  A    between atoms: _43  and  _44
REMARK   19  A    between atoms: _43  and  _46
REMARK   20  A    between atoms: _46  and  _47
REMARK   21  A    between atoms: _53  and  _55
REMARK   22  A    between atoms: _55  and  _56
REMARK   23  A    between atoms: _55  and  _58
REMARK   24  A    between atoms: _58  and  _59
REMARK   25  A    between atoms: _64  and  _65
REMARK   26  A    between atoms: _67  and  _69
REMARK   27  A    between atoms: _69  and  _70
REMARK   28  A    between atoms: _69  and  _72
REMARK   29  A    between atoms: _72  and  _73
REMARK   30  A    between atoms: _79  and  _81
REMARK   31  A    between atoms: _81  and  _82
REMARK   32  A    between atoms: _81  and  _84
REMARK   33  A    between atoms: _84  and  _85
REMARK   34  A    between atoms: _88  and  _90
REMARK   35  A    between atoms: _90  and  _91
REMARK   36  A    between atoms: _90  and  _93
REMARK   37  A    between atoms: _93  and  _94
REMARK   38  A    between atoms: _96  and  _98
REMARK   39  A    between atoms: _98  and  _99
REMARK   40  A    between atoms: _98  and  _101
REMARK   41  A    between atoms: _104  and  _106
REMARK   42  A    between atoms: _106  and  _107
REMARK   43  A    between atoms: _109  and  _111
REMARK   44  A    between atoms: _111  and  _112
REMARK   45  A    between atoms: _111  and  _114
REMARK   46  A    between atoms: _114  and  _115
REMARK   47  A    between atoms: _121  and  _123
REMARK   48  A    between atoms: _123  and  _124
REMARK   49  A    between atoms: _123  and  _126
REMARK   50  A    between atoms: _129  and  _131
REMARK   51  A    between atoms: _131  and  _132
REMARK   52  A    between atoms: _131  and  _134
REMARK   53  A    between atoms: _134  and  _135
REMARK   54  A    between atoms: _135  and  _136
REMARK   55  A    between atoms: _136  and  _137
REMARK   56  A    between atoms: _146  and  _148
REMARK   57  A    between atoms: _148  and  _149
REMARK   58  A    between atoms: _148  and  _151
REMARK   59  A    between atoms: _151  and  _152
REMARK   60  A    between atoms: _158  and  _160
REMARK   61  A    between atoms: _160  and  _161
REMARK   62  A    between atoms: _160  and  _163
REMARK   63  A    between atoms: _163  and  _164
REMARK   64  A    between atoms: _164  and  _165
REMARK   65  A    between atoms: _168  and  _170
REMARK   66  A    between atoms: _170  and  _171
REMARK   67  A    between atoms: _170  and  _173
REMARK   68  A    between atoms: _173  and  _174
REMARK   69  A    between atoms: _174  and  _175
REMARK   70  A    between atoms: _178  and  _180
REMARK   71  A    between atoms: _180  and  _181
REMARK   72  A    between atoms: _180  and  _183
REMARK   73  A    between atoms: _183  and  _184
REMARK   74  A    between atoms: _187  and  _189
REMARK   75  A    between atoms: _189  and  _190
REMARK   76  A    between atoms: _189  and  _192
REMARK   77  A    between atoms: _192  and  _193
REMARK   78  A    between atoms: _193  and  _194
REMARK   79  A    between atoms: _197  and  _199
REMARK   80  A    between atoms: _199  and  _200
REMARK   81  A    between atoms: _199  and  _202
REMARK   82  A    between atoms: _202  and  _203
REMARK   83  A    between atoms: _203  and  _204
REMARK   84  A    between atoms: _207  and  _209
REMARK   85  A    between atoms: _209  and  _210
REMARK   86  A    between atoms: _209  and  _212
REMARK   87  A    between atoms: _212  and  _213
REMARK   88  A    between atoms: _218  and  _219
REMARK   89  A    between atoms: _221  and  _223
REMARK   90  A    between atoms: _223  and  _224
REMARK   91  A    between atoms: _223  and  _226
REMARK   92  A    between atoms: _226  and  _227
REMARK   93  A    between atoms: _237  and  _239
REMARK   94  A    between atoms: _239  and  _240
REMARK   95  A    between atoms: _239  and  _242
REMARK   96  A    between atoms: _242  and  _243
REMARK   97  A    between atoms: _246  and  _248
REMARK   98  A    between atoms: _248  and  _249
REMARK   99  A    between atoms: _248  and  _251
REMARK  100  A    between atoms: _251  and  _252
REMARK  101  A    between atoms: _252  and  _253
REMARK  102  A    between atoms: _253  and  _254
REMARK  103  A    between atoms: _263  and  _265
REMARK  104  A    between atoms: _265  and  _266
REMARK  105  A    between atoms: _265  and  _268
REMARK  106  A    between atoms: _268  and  _269
REMARK  107  A    between atoms: _274  and  _276
REMARK  108  A    between atoms: _276  and  _277
REMARK  109  A    between atoms: _276  and  _279
REMARK  110  A    between atoms: _279  and  _280
REMARK  111  A    between atoms: _283  and  _285
REMARK  112  A    between atoms: _285  and  _286
REMARK  113  A    between atoms: _285  and  _288
REMARK  114  A    between atoms: _288  and  _289
REMARK  115  A    between atoms: _289  and  _290
REMARK  116  A    between atoms: _295  and  _297
REMARK  117  A    between atoms: _297  and  _298
REMARK  118  A    between atoms: _297  and  _300
REMARK  119  A    between atoms: _300  and  _301
REMARK  120  A    between atoms: _304  and  _306
REMARK  121  A    between atoms: _306  and  _307
REMARK  122  A    between atoms: _306  and  _309
REMARK  123  A    between atoms: _311  and  _313
REMARK  124  A    between atoms: _313  and  _314
REMARK  125  A    between atoms: _313  and  _316
REMARK  126  A    between atoms: _316  and  _317
REMARK  127  A    between atoms: _320  and  _322
REMARK  128  A    between atoms: _322  and  _323
REMARK  129  A    between atoms: _322  and  _325
REMARK  130  A    between atoms: _325  and  _326
REMARK  131  A    between atoms: _331  and  _333
REMARK  132  A    between atoms: _333  and  _334
REMARK  133  A    between atoms: _333  and  _336
REMARK  134  A    between atoms: _336  and  _337
REMARK  135  A    between atoms: _337  and  _338
REMARK  136  A    between atoms: _343  and  _345
REMARK  137  A    between atoms: _345  and  _346
REMARK  138  A    between atoms: _345  and  _348
REMARK  139  A    between atoms: _348  and  _349
REMARK  140  A    between atoms: _352  and  _354
REMARK  141  A    between atoms: _354  and  _355
REMARK  142  A    between atoms: _354  and  _357
REMARK  143  A    between atoms: _357  and  _358
REMARK  144  A    between atoms: _361  and  _363
REMARK  145  A    between atoms: _363  and  _364
REMARK  146  A    between atoms: _363  and  _366
REMARK  147  A    between atoms: _366  and  _367
REMARK  148  A    between atoms: _367  and  _368
REMARK  149  A    between atoms: _368  and  _369
REMARK  150  A    between atoms: _378  and  _380
REMARK  151  A    between atoms: _380  and  _381
REMARK  152  A    between atoms: _380  and  _383
REMARK  153  A    between atoms: _383  and  _384
REMARK  154  A    between atoms: _384  and  _385
REMARK  155  A    between atoms: _388  and  _390
REMARK  156  A    between atoms: _390  and  _391
REMARK  157  A    between atoms: _390  and  _393
REMARK  158  A    between atoms: _393  and  _394
REMARK  159  A    between atoms: _396  and  _398
REMARK  160  A    between atoms: _398  and  _399
REMARK  161  A    between atoms: _398  and  _401
REMARK  162  A    between atoms: _401  and  _402
REMARK  163  A    between atoms: _405  and  _407
REMARK  164  A    between atoms: _407  and  _408
REMARK  165  A    between atoms: _407  and  _410
REMARK  166  A    between atoms: _410  and  _411
REMARK  167  A    between atoms: _411  and  _412
REMARK  168  A    between atoms: _412  and  _413
REMARK  169  A    between atoms: _422  and  _424
REMARK  170  A    between atoms: _424  and  _425
REMARK  171  A    between atoms: _424  and  _427
REMARK  172  A    between atoms: _427  and  _428
REMARK  173  A    between atoms: _433  and  _435
REMARK  174  A    between atoms: _435  and  _436
REMARK  175  A    between atoms: _435  and  _438
REMARK  176  A    between atoms: _438  and  _439
REMARK  177  A    between atoms: _442  and  _444
REMARK  178  A    between atoms: _444  and  _445
REMARK  179  A    between atoms: _444  and  _447
REMARK  180  A    between atoms: _447  and  _448
REMARK  181  A    between atoms: _453  and  _454
REMARK  182  A    between atoms: _456  and  _458
REMARK  183  A    between atoms: _458  and  _459
REMARK  184  A    between atoms: _458  and  _461
REMARK  185  A    between atoms: _461  and  _462
REMARK  186  A    between atoms: _465  and  _467
REMARK  187  A    between atoms: _467  and  _468
REMARK  188  A    between atoms: _467  and  _470
REMARK  189  A    between atoms: _470  and  _471
REMARK  190  A    between atoms: _471  and  _472
REMARK  191  A    between atoms: _477  and  _479
REMARK  192  A    between atoms: _479  and  _480
REMARK  193  A    between atoms: _479  and  _482
REMARK  194  A    between atoms: _482  and  _483
REMARK  195  A    between atoms: _483  and  _484
REMARK  196  A    between atoms: _484  and  _485
REMARK  197  A    between atoms: _494  and  _496
REMARK  198  A    between atoms: _496  and  _497
REMARK  199  A    between atoms: _496  and  _499
REMARK  200  A    between atoms: _499  and  _500
REMARK  201  A    between atoms: _505  and  _506
REMARK  202  A    between atoms: _508  and  _510
REMARK  203  A    between atoms: _510  and  _511
REMARK  204  A    between atoms: _513  and  _515
REMARK  205  A    between atoms: _515  and  _516
REMARK  206  A    between atoms: _515  and  _518
REMARK  207  A    between atoms: _518  and  _519
REMARK  208  A    between atoms: _524  and  _526
REMARK  209  A    between atoms: _526  and  _527
REMARK  210  A    between atoms: _526  and  _529
REMARK  211  A    between atoms: _529  and  _530
REMARK  212  A    between atoms: _530  and  _531
REMARK  213  A    between atoms: _536  and  _538
REMARK  214  A    between atoms: _538  and  _539
REMARK  215  A    between atoms: _538  and  _541
REMARK  216  A    between atoms: _541  and  _542
REMARK  217  A    between atoms: _548  and  _550
REMARK  218  A    between atoms: _550  and  _551
REMARK  219  A    between atoms: _554  and  _556
REMARK  220  A    between atoms: _556  and  _557
REMARK  221  A    between atoms: _556  and  _559
REMARK  222  A    between atoms: _559  and  _560
REMARK  223  A    between atoms: _565  and  _566
REMARK  224  A    between atoms: _568  and  _570
REMARK  225  A    between atoms: _570  and  _571
REMARK  226  A    between atoms: _570  and  _573
REMARK  227  A    between atoms: _573  and  _574
REMARK  228  A    between atoms: _579  and  _580
REMARK  229  A    between atoms: _582  and  _584
REMARK  230  A    between atoms: _584  and  _585
REMARK  231  A    between atoms: _584  and  _587
REMARK  232  A    between atoms: _587  and  _588
REMARK  233  A    between atoms: _591  and  _593
REMARK  234  A    between atoms: _593  and  _594
REMARK  235  A    between atoms: _593  and  _596
REMARK  236  A    between atoms: _596  and  _597
REMARK  237  A    between atoms: _607  and  _609
REMARK  238  A    between atoms: _609  and  _610
REMARK  239  A    between atoms: _613  and  _615
REMARK  240  A    between atoms: _615  and  _616
REMARK  241  A    between atoms: _619  and  _621
REMARK  242  A    between atoms: _621  and  _622
REMARK  243  A    between atoms: _621  and  _624
REMARK  244  A    between atoms: _624  and  _625
REMARK  245  A    between atoms: _625  and  _626
REMARK  246  A    between atoms: _631  and  _633
REMARK  247  A    between atoms: _633  and  _634
REMARK  248  A    between atoms: _633  and  _636
REMARK  249  A    between atoms: _636  and  _637
REMARK  250  A    between atoms: _640  and  _642
REMARK  251  A    between atoms: _642  and  _643
REMARK  252  A    between atoms: _642  and  _645
REMARK  253  A    between atoms: _645  and  _646
REMARK  254  A    between atoms: _649  and  _651
REMARK  255  A    between atoms: _651  and  _652
REMARK  256  A    between atoms: _651  and  _654
REMARK  257  A    between atoms: _654  and  _655
REMARK  258  A    between atoms: _655  and  _656
REMARK  259  A    between atoms: _661  and  _663
REMARK  260  A    between atoms: _663  and  _664
REMARK  261  A    between atoms: _663  and  _666
REMARK  262  A    between atoms: _666  and  _667
REMARK  263  A    between atoms: _667  and  _668
REMARK  264  A    between atoms: _668  and  _669
REMARK  265  A    between atoms: _678  and  _680
REMARK  266  A    between atoms: _680  and  _681
REMARK  267  A    between atoms: _680  and  _683
REMARK  268  A    between atoms: _683  and  _684
REMARK  269  A    between atoms: _684  and  _685
REMARK  270  A    between atoms: _685  and  _686
REMARK  271  A    between atoms: _686  and  _687
REMARK  272  A    between atoms: _691  and  _693
REMARK  273  A    between atoms: _693  and  _694
REMARK  274  A    between atoms: _693  and  _696
REMARK  275  A    between atoms: _696  and  _697
REMARK  276  A    between atoms: _707  and  _709
REMARK  277  A    between atoms: _709  and  _710
REMARK  278  A    between atoms: _713  and  _715
REMARK  279  A    between atoms: _715  and  _716
REMARK  280  A    between atoms: _719  and  _721
REMARK  281  A    between atoms: _721  and  _722
REMARK  282  A    between atoms: _721  and  _724
REMARK  283  A    between atoms: _724  and  _725
REMARK  284  A    between atoms: _725  and  _726
REMARK  285  A    between atoms: _726  and  _727
REMARK  286  A    between atoms: _736  and  _738
REMARK  287  A    between atoms: _738  and  _739
REMARK  288  A    between atoms: _738  and  _741
REMARK  289  A    between atoms: _744  and  _746
REMARK  290  A    between atoms: _746  and  _747
REMARK  291  A    between atoms: _750  and  _752
REMARK  292  A    between atoms: _752  and  _753
REMARK  293  A    between atoms: _752  and  _755
REMARK  294  A    between atoms: _755  and  _756
REMARK  295  A    between atoms: _756  and  _757
REMARK  296  A    between atoms: _760  and  _762
REMARK  297  A    between atoms: _762  and  _763
REMARK  298  A    between atoms: _762  and  _765
REMARK  299  A    between atoms: _765  and  _766
REMARK  300  A    between atoms: _766  and  _767
REMARK  301  A    between atoms: _772  and  _774
REMARK  302  A    between atoms: _774  and  _775
REMARK  303  A    between atoms: _774  and  _777
REMARK  304  A    between atoms: _777  and  _778
REMARK  305  A    between atoms: _781  and  _783
REMARK  306  A    between atoms: _783  and  _784
REMARK  307  A    between atoms: _783  and  _786
REMARK  308  A    between atoms: _786  and  _787
REMARK  309  A    between atoms: _787  and  _788
REMARK  310  A    between atoms: _788  and  _789
REMARK  311  A    between atoms: _798  and  _800
REMARK  312  A    between atoms: _800  and  _801
REMARK  313  A    between atoms: _800  and  _803
REMARK  314  A    between atoms: _803  and  _804
REMARK  315  A    between atoms: _807  and  _809
REMARK  316  A    between atoms: _809  and  _810
REMARK  317  A    between atoms: _809  and  _812
REMARK  318  A    between atoms: _812  and  _813
REMARK  319  A    between atoms: _818  and  _819
REMARK  320  A    between atoms: _821  and  _823
REMARK  321  A    between atoms: _823  and  _824
REMARK  322  A    between atoms: _823  and  _826
REMARK  323  A    between atoms: _826  and  _827
REMARK  324  A    between atoms: _830  and  _832
REMARK  325  A    between atoms: _832  and  _833
REMARK  326  A    between atoms: _832  and  _835
REMARK  327  A    between atoms: _835  and  _836
REMARK  328  A    between atoms: _839  and  _841
REMARK  329  A    between atoms: _841  and  _842
REMARK  330  A    between atoms: _841  and  _844
REMARK  331  A    between atoms: _846  and  _848
REMARK  332  A    between atoms: _848  and  _849
REMARK  333  A    between atoms: _848  and  _851
REMARK  334  A    between atoms: _854  and  _856
REMARK  335  A    between atoms: _856  and  _857
REMARK  336  A    between atoms: _856  and  _859
REMARK  337  A    between atoms: _859  and  _860
REMARK  338  A    between atoms: _860  and  _861
REMARK  339  A    between atoms: _864  and  _866
REMARK  340  A    between atoms: _866  and  _867
REMARK  341  A    between atoms: _866  and  _869
REMARK  342  A    between atoms: _869  and  _870
REMARK  343  A    between atoms: _880  and  _882
REMARK  344  A    between atoms: _882  and  _883
REMARK  345  A    between atoms: _882  and  _885
REMARK  346  A    between atoms: _885  and  _886
REMARK  347  A    between atoms: _889  and  _891
REMARK  348  A    between atoms: _891  and  _892
REMARK  349  A    between atoms: _891  and  _894
REMARK  350  A    between atoms: _894  and  _895
REMARK  351  A    between atoms: _900  and  _901
REMARK                            x       y       z     vdW  Elec       q    Type
REMARK                         _______ _______ _______ _____ _____    ______ ____
ROOT
ATOM      1  CA  ILE A   1      21.299   7.952  36.169  0.00  0.00    +0.133 C 
ENDROOT
BRANCH   1   2
ATOM      2  N   ILE A   1      22.494   7.980  35.325  0.00  0.00    -0.239 NA
ATOM      3  H   ILE A   1      22.532   7.395  34.466  0.00  0.00    +0.142 HD
ENDBRANCH   1   2
BRANCH   1   4
ATOM      4  C   ILE A   1      21.403   6.855  37.228  0.00  0.00    +0.224 C 
ATOM      5  O   ILE A   1      20.652   6.843  38.204  0.00  0.00    -0.287 OA
ENDBRANCH   1   4
BRANCH   1   6
ATOM      6  CB  ILE A   1      20.006   7.749  35.341  0.00  0.00    +0.023 C 
ATOM      7  CG2 ILE A   1      19.889   6.312  34.869  0.00  0.00    +0.002 C 
BRANCH   6   8
ATOM      8  CG1 ILE A   1      18.772   8.143  36.158  0.00  0.00    +0.002 C 
ATOM      9  CD1 ILE A   1      18.663   9.629  36.422  0.00  0.00    +0.000 C 
ENDBRANCH   6   8
ENDBRANCH   1   6
TORSDOF 4
REMARK  Name = ../refined-set-2016/4o2c/4o2c_pocket.pdb
REMARK  351 active torsions:
REMARK  status: ('A' for Active; 'I' for Inactive)
REMARK    1  A    between atoms: _1  and  _3
REMARK    2  A    between atoms: _3  and  _4
REMARK    3  A    between atoms: _3  and  _6
REMARK    4  A    between atoms: _6  and  _7
REMARK    5  A    between atoms: _7  and  _8
REMARK    6  A    between atoms: _10  and  _12
REMARK    7  A    between atoms: _12  and  _13
REMARK    8  A    between atoms: _12  and  _15
REMARK    9  A    between atoms: _15  and  _16
REMARK   10  A    between atoms: _16  and  _17
REMARK   11  A    between atoms: _17  and  _18
REMARK   12  A    between atoms: _27  and  _29
REMARK   13  A    between atoms: _29  and  _30
REMARK   14  A    between atoms: _29  and  _32
REMARK   15  A    between atoms: _32  and  _33
REMARK   16  A    between atoms: _38  and  _39
REMARK   17  A    between atoms: _41  and  _43
REMARK   18  A    between atoms: _43  and  _44
REMARK   19  A    between atoms: _43  and  _46
REMARK   20  A    between atoms: _46  and  _47
REMARK   21  A    between atoms: _53  and  _55
REMARK   22  A    between atoms: _55  and  _56
REMARK   23  A    between atoms: _55  and  _58
REMARK   24  A    between atoms: _58  and  _59
REMARK   25  A    between atoms: _64  and  _65
REMARK   26  A    between atoms: _67  and  _69
REMARK   27  A    between atoms: _69  and  _70
REMARK   28  A    between atoms: _69  and  _72
REMARK   29  A    between atoms: _72  and  _73
REMARK   30  A    between atoms: _79  and  _81
REMARK   31  A    between atoms: _81  and  _82
REMARK   32  A    between atoms: _81  and  _84
REMARK   33  A    between atoms: _84  and  _85
REMARK   34  A    between atoms: _88  and  _90
REMARK   35  A    between atoms: _90  and  _91
REMARK   36  A    between atoms: _90  and  _93
REMARK   37  A    between atoms: _93  and  _94
REMARK   38  A    between atoms: _96  and  _98
REMARK   39  A    between atoms: _98  and  _99
REMARK   40  A    between atoms: _98  and  _101
REMARK   41  A    between atoms: _104  and  _106
REMARK   42  A    between atoms: _106  and  _107
REMARK   43  A    between atoms: _109  and  _111
REMARK   44  A    between atoms: _111  and  _112
REMARK   45  A    between atoms: _111  and  _114
REMARK   46  A    between atoms: _114  and  _115
REMARK   47  A    between atoms: _121  and  _123
REMARK   48  A    between atoms: _123  and  _124
REMARK   49  A    between atoms: _123  and  _126
REMARK   50  A    between atoms: _129  and  _131
REMARK   51  A    between atoms: _131  and  _132
REMARK   52  A    between atoms: _131  and  _134
REMARK   53  A    between atoms: _134  and  _135
REMARK   54  A    between atoms: _135  and  _136
REMARK   55  A    between atoms: _136  and  _137
REMARK   56  A    between atoms: _146  and  _148
REMARK   57  A    between atoms: _148  and  _149
REMARK   58  A    between atoms: _148  and  _151
REMARK   59  A    between atoms: _151  and  _152
REMARK   60  A    between atoms: _158  and  _160
REMARK   61  A    between atoms: _160  and  _161
REMARK   62  A    between atoms: _160  and  _163
REMARK   63  A    between atoms: _163  and  _164
REMARK   64  A    between atoms: _164  and  _165
REMARK   65  A    between atoms: _168  and  _170
REMARK   66  A    between atoms: _170  and  _171
REMARK   67  A    between atoms: _170  and  _173
REMARK   68  A    between atoms: _173  and  _174
REMARK   69  A    between atoms: _174  and  _175
REMARK   70  A    between atoms: _178  and  _180
REMARK   71  A    between atoms: _180  and  _181
REMARK   72  A    between atoms: _180  and  _183
REMARK   73  A    between atoms: _183  and  _184
REMARK   74  A    between atoms: _187  and  _189
REMARK   75  A    between atoms: _189  and  _190
REMARK   76  A    between atoms: _189  and  _192
REMARK   77  A    between atoms: _192  and  _193
REMARK   78  A    between atoms: _193  and  _194
REMARK   79  A    between atoms: _197  and  _199
REMARK   80  A    between atoms: _199  and  _200
REMARK   81  A    between atoms: _199  and  _202
REMARK   82  A    between atoms: _202  and  _203
REMARK   83  A    between atoms: _203  and  _204
REMARK   84  A    between atoms: _207  and  _209
REMARK   85  A    between atoms: _209  and  _210
REMARK   86  A    between atoms: _209  and  _212
REMARK   87  A    between atoms: _212  and  _213
REMARK   88  A    between atoms: _218  and  _219
REMARK   89  A    between atoms: _221  and  _223
REMARK   90  A    between atoms: _223  and  _224
REMARK   91  A    between atoms: _223  and  _226
REMARK   92  A    between atoms: _226  and  _227
REMARK   93  A    between atoms: _237  and  _239
REMARK   94  A    between atoms: _239  and  _240
REMARK   95  A    between atoms: _239  and  _242
REMARK   96  A    between atoms: _242  and  _243
REMARK   97  A    between atoms: _246  and  _248
REMARK   98  A    between atoms: _248  and  _249
REMARK   99  A    between atoms: _248  and  _251
REMARK  100  A    between atoms: _251  and  _252
REMARK  101  A    between atoms: _252  and  _253
REMARK  102  A    between atoms: _253  and  _254
REMARK  103  A    between atoms: _263  and  _265
REMARK  104  A    between atoms: _265  and  _266
REMARK  105  A    between atoms: _265  and  _268
REMARK  106  A    between atoms: _268  and  _269
REMARK  107  A    between atoms: _274  and  _276
REMARK  108  A    between atoms: _276  and  _277
REMARK  109  A    between atoms: _276  and  _279
REMARK  110  A    between atoms: _279  and  _280
REMARK  111  A    between atoms: _283  and  _285
REMARK  112  A    between atoms: _285  and  _286
REMARK  113  A    between atoms: _285  and  _288
REMARK  114  A    between atoms: _288  and  _289
REMARK  115  A    between atoms: _289  and  _290
REMARK  116  A    between atoms: _295  and  _297
REMARK  117  A    between atoms: _297  and  _298
REMARK  118  A    between atoms: _297  and  _300
REMARK  119  A    between atoms: _300  and  _301
REMARK  120  A    between atoms: _304  and  _306
REMARK  121  A    between atoms: _306  and  _307
REMARK  122  A    between atoms: _306  and  _309
REMARK  123  A    between atoms: _311  and  _313
REMARK  124  A    between atoms: _313  and  _314
REMARK  125  A    between atoms: _313  and  _316
REMARK  126  A    between atoms: _316  and  _317
REMARK  127  A    between atoms: _320  and  _322
REMARK  128  A    between atoms: _322  and  _323
REMARK  129  A    between atoms: _322  and  _325
REMARK  130  A    between atoms: _325  and  _326
REMARK  131  A    between atoms: _331  and  _333
REMARK  132  A    between atoms: _333  and  _334
REMARK  133  A    between atoms: _333  and  _336
REMARK  134  A    between atoms: _336  and  _337
REMARK  135  A    between atoms: _337  and  _338
REMARK  136  A    between atoms: _343  and  _345
REMARK  137  A    between atoms: _345  and  _346
REMARK  138  A    between atoms: _345  and  _348
REMARK  139  A    between atoms: _348  and  _349
REMARK  140  A    between atoms: _352  and  _354
REMARK  141  A    between atoms: _354  and  _355
REMARK  142  A    between atoms: _354  and  _357
REMARK  143  A    between atoms: _357  and  _358
REMARK  144  A    between atoms: _361  and  _363
REMARK  145  A    between atoms: _363  and  _364
REMARK  146  A    between atoms: _363  and  _366
REMARK  147  A    between atoms: _366  and  _367
REMARK  148  A    between atoms: _367  and  _368
REMARK  149  A    between atoms: _368  and  _369
REMARK  150  A    between atoms: _378  and  _380
REMARK  151  A    between atoms: _380  and  _381
REMARK  152  A    between atoms: _380  and  _383
REMARK  153  A    between atoms: _383  and  _384
REMARK  154  A    between atoms: _384  and  _385
REMARK  155  A    between atoms: _388  and  _390
REMARK  156  A    between atoms: _390  and  _391
REMARK  157  A    between atoms: _390  and  _393
REMARK  158  A    between atoms: _393  and  _394
REMARK  159  A    between atoms: _396  and  _398
REMARK  160  A    between atoms: _398  and  _399
REMARK  161  A    between atoms: _398  and  _401
REMARK  162  A    between atoms: _401  and  _402
REMARK  163  A    between atoms: _405  and  _407
REMARK  164  A    between atoms: _407  and  _408
REMARK  165  A    between atoms: _407  and  _410
REMARK  166  A    between atoms: _410  and  _411
REMARK  167  A    between atoms: _411  and  _412
REMARK  168  A    between atoms: _412  and  _413
REMARK  169  A    between atoms: _422  and  _424
REMARK  170  A    between atoms: _424  and  _425
REMARK  171  A    between atoms: _424  and  _427
REMARK  172  A    between atoms: _427  and  _428
REMARK  173  A    between atoms: _433  and  _435
REMARK  174  A    between atoms: _435  and  _436
REMARK  175  A    between atoms: _435  and  _438
REMARK  176  A    between atoms: _438  and  _439
REMARK  177  A    between atoms: _442  and  _444
REMARK  178  A    between atoms: _444  and  _445
REMARK  179  A    between atoms: _444  and  _447
REMARK  180  A    between atoms: _447  and  _448
REMARK  181  A    between atoms: _453  and  _454
REMARK  182  A    between atoms: _456  and  _458
REMARK  183  A    between atoms: _458  and  _459
REMARK  184  A    between atoms: _458  and  _461
REMARK  185  A    between atoms: _461  and  _462
REMARK  186  A    between atoms: _465  and  _467
REMARK  187  A    between atoms: _467  and  _468
REMARK  188  A    between atoms: _467  and  _470
REMARK  189  A    between atoms: _470  and  _471
REMARK  190  A    between atoms: _471  and  _472
REMARK  191  A    between atoms: _477  and  _479
REMARK  192  A    between atoms: _479  and  _480
REMARK  193  A    between atoms: _479  and  _482
REMARK  194  A    between atoms: _482  and  _483
REMARK  195  A    between atoms: _483  and  _484
REMARK  196  A    between atoms: _484  and  _485
REMARK  197  A    between atoms: _494  and  _496
REMARK  198  A    between atoms: _496  and  _497
REMARK  199  A    between atoms: _496  and  _499
REMARK  200  A    between atoms: _499  and  _500
REMARK  201  A    between atoms: _505  and  _506
REMARK  202  A    between atoms: _508  and  _510
REMARK  203  A    between atoms: _510  and  _511
REMARK  204  A    between atoms: _513  and  _515
REMARK  205  A    between atoms: _515  and  _516
REMARK  206  A    between atoms: _515  and  _518
REMARK  207  A    between atoms: _518  and  _519
REMARK  208  A    between atoms: _524  and  _526
REMARK  209  A    between atoms: _526  and  _527
REMARK  210  A    between atoms: _526  and  _529
REMARK  211  A    between atoms: _529  and  _530
REMARK  212  A    between atoms: _530  and  _531
REMARK  213  A    between atoms: _536  and  _538
REMARK  214  A    between atoms: _538  and  _539
REMARK  215  A    between atoms: _538  and  _541
REMARK  216  A    between atoms: _541  and  _542
REMARK  217  A    between atoms: _548  and  _550
REMARK  218  A    between atoms: _550  and  _551
REMARK  219  A    between atoms: _554  and  _556
REMARK  220  A    between atoms: _556  and  _557
REMARK  221  A    between atoms: _556  and  _559
REMARK  222  A    between atoms: _559  and  _560
REMARK  223  A    between atoms: _565  and  _566
REMARK  224  A    between atoms: _568  and  _570
REMARK  225  A    between atoms: _570  and  _571
REMARK  226  A    between atoms: _570  and  _573
REMARK  227  A    between atoms: _573  and  _574
REMARK  228  A    between atoms: _579  and  _580
REMARK  229  A    between atoms: _582  and  _584
REMARK  230  A    between atoms: _584  and  _585
REMARK  231  A    between atoms: _584  and  _587
REMARK  232  A    between atoms: _587  and  _588
REMARK  233  A    between atoms: _591  and  _593
REMARK  234  A    between atoms: _593  and  _594
REMARK  235  A    between atoms: _593  and  _596
REMARK  236  A    between atoms: _596  and  _597
REMARK  237  A    between atoms: _607  and  _609
REMARK  238  A    between atoms: _609  and  _610
REMARK  239  A    between atoms: _613  and  _615
REMARK  240  A    between atoms: _615  and  _616
REMARK  241  A    between atoms: _619  and  _621
REMARK  242  A    between atoms: _621  and  _622
REMARK  243  A    between atoms: _621  and  _624
REMARK  244  A    between atoms: _624  and  _625
REMARK  245  A    between atoms: _625  and  _626
REMARK  246  A    between atoms: _631  and  _633
REMARK  247  A    between atoms: _633  and  _634
REMARK  248  A    between atoms: _633  and  _636
REMARK  249  A    between atoms: _636  and  _637
REMARK  250  A    between atoms: _640  and  _642
REMARK  251  A    between atoms: _642  and  _643
REMARK  252  A    between atoms: _642  and  _645
REMARK  253  A    between atoms: _645  and  _646
REMARK  254  A    between atoms: _649  and  _651
REMARK  255  A    between atoms: _651  and  _652
REMARK  256  A    between atoms: _651  and  _654
REMARK  257  A    between atoms: _654  and  _655
REMARK  258  A    between atoms: _655  and  _656
REMARK  259  A    between atoms: _661  and  _663
REMARK  260  A    between atoms: _663  and  _664
REMARK  261  A    between atoms: _663  and  _666
REMARK  262  A    between atoms: _666  and  _667
REMARK  263  A    between atoms: _667  and  _668
REMARK  264  A    between atoms: _668  and  _669
REMARK  265  A    between atoms: _678  and  _680
REMARK  266  A    between atoms: _680  and  _681
REMARK  267  A    between atoms: _680  and  _683
REMARK  268  A    between atoms: _683  and  _684
REMARK  269  A    between atoms: _684  and  _685
REMARK  270  A    between atoms: _685  and  _686
REMARK  271  A    between atoms: _686  and  _687
REMARK  272  A    between atoms: _691  and  _693
REMARK  273  A    between atoms: _693  and  _694
REMARK  274  A    between atoms: _693  and  _696
REMARK  275  A    between atoms: _696  and  _697
REMARK  276  A    between atoms: _707  and  _709
REMARK  277  A    between atoms: _709  and  _710
REMARK  278  A    between atoms: _713  and  _715
REMARK  279  A    between atoms: _715  and  _716
REMARK  280  A    between atoms: _719  and  _721
REMARK  281  A    between atoms: _721  and  _722
REMARK  282  A    between atoms: _721  and  _724
REMARK  283  A    between atoms: _724  and  _725
REMARK  284  A    between atoms: _725  and  _726
REMARK  285  A    between atoms: _726  and  _727
REMARK  286  A    between atoms: _736  and  _738
REMARK  287  A    between atoms: _738  and  _739
REMARK  288  A    between atoms: _738  and  _741
REMARK  289  A    between atoms: _744  and  _746
REMARK  290  A    between atoms: _746  and  _747
REMARK  291  A    between atoms: _750  and  _752
REMARK  292  A    between atoms: _752  and  _753
REMARK  293  A    between atoms: _752  and  _755
REMARK  294  A    between atoms: _755  and  _756
REMARK  295  A    between atoms: _756  and  _757
REMARK  296  A    between atoms: _760  and  _762
REMARK  297  A    between atoms: _762  and  _763
REMARK  298  A    between atoms: _762  and  _765
REMARK  299  A    between atoms: _765  and  _766
REMARK  300  A    between atoms: _766  and  _767
REMARK  301  A    between atoms: _772  and  _774
REMARK  302  A    between atoms: _774  and  _775
REMARK  303  A    between atoms: _774  and  _777
REMARK  304  A    between atoms: _777  and  _778
REMARK  305  A    between atoms: _781  and  _783
REMARK  306  A    between atoms: _783  and  _784
REMARK  307  A    between atoms: _783  and  _786
REMARK  308  A    between atoms: _786  and  _787
REMARK  309  A    between atoms: _787  and  _788
REMARK  310  A    between atoms: _788  and  _789
REMARK  311  A    between atoms: _798  and  _800
REMARK  312  A    between atoms: _800  and  _801
REMARK  313  A    between atoms: _800  and  _803
REMARK  314  A    between atoms: _803  and  _804
REMARK  315  A    between atoms: _807  and  _809
REMARK  316  A    between atoms: _809  and  _810
REMARK  317  A    between atoms: _809  and  _812
REMARK  318  A    between atoms: _812  and  _813
REMARK  319  A    between atoms: _818  and  _819
REMARK  320  A    between atoms: _821  and  _823
REMARK  321  A    between atoms: _823  and  _824
REMARK  322  A    between atoms: _823  and  _826
REMARK  323  A    between atoms: _826  and  _827
REMARK  324  A    between atoms: _830  and  _832
REMARK  325  A    between atoms: _832  and  _833
REMARK  326  A    between atoms: _832  and  _835
REMARK  327  A    between atoms: _835  and  _836
REMARK  328  A    between atoms: _839  and  _841
REMARK  329  A    between atoms: _841  and  _842
REMARK  330  A    between atoms: _841  and  _844
REMARK  331  A    between atoms: _846  and  _848
REMARK  332  A    between atoms: _848  and  _849
REMARK  333  A    between atoms: _848  and  _851
REMARK  334  A    between atoms: _854  and  _856
REMARK  335  A    between atoms: _856  and  _857
REMARK  336  A    between atoms: _856  and  _859
REMARK  337  A    between atoms: _859  and  _860
REMARK  338  A    between atoms: _860  and  _861
REMARK  339  A    between atoms: _864  and  _866
REMARK  340  A    between atoms: _866  and  _867
REMARK  341  A    between atoms: _866  and  _869
REMARK  342  A    between atoms: _869  and  _870
REMARK  343  A    between atoms: _880  and  _882
REMARK  344  A    between atoms: _882  and  _883
REMARK  345  A    between atoms: _882  and  _885
REMARK  346  A    between atoms: _885  and  _886
REMARK  347  A    between atoms: _889  and  _891
REMARK  348  A    between atoms: _891  and  _892
REMARK  349  A    between atoms: _891  and  _894
REMARK  350  A    between atoms: _894  and  _895
REMARK  351  A    between atoms: _900  and  _901
REMARK                            x       y       z     vdW  Elec       q    Type
REMARK                         _______ _______ _______ _____ _____    ______ ____
ROOT
ATOM      1  CA  GLU A   1      20.382   7.843  41.941  0.00  0.00    +0.134 C 
ENDROOT
BRANCH   1   2
ATOM      2  N   GLU A   1      21.556   7.476  41.154  0.00  0.00    -0.239 NA
ATOM      3  H   GLU A   1      21.482   7.407  40.119  0.00  0.00    +0.142 HD
ENDBRANCH   1   2
BRANCH   1   4
ATOM      4  C   GLU A   1      20.057   6.726  42.930  0.00  0.00    +0.224 C 
ATOM      5  O   GLU A   1      20.162   5.545  42.600  0.00  0.00    -0.287 OA
ENDBRANCH   1   4
BRANCH   1   6
ATOM      6  CB  GLU A   1      19.179   8.131  41.038  0.00  0.00    +0.037 C 
BRANCH   6   7
ATOM      7  CG  GLU A   1      19.397   9.264  40.043  0.00  0.00    +0.116 C 
BRANCH   7   8
ATOM      8  CD  GLU A   1      19.640  10.607  40.712  0.00  0.00    +0.365 C 
ATOM      9  OE2 GLU A   1      19.357  10.742  41.921  0.00  0.00    -0.246 OA
ATOM     10  OE1 GLU A   1      20.109  11.536  40.021  0.00  0.00    -0.246 OA
ENDBRANCH   7   8
ENDBRANCH   6   7
ENDBRANCH   1   6
TORSDOF 5
REMARK  Name = ../refined-set-2016/4o2c/4o2c_pocket.pdb
REMARK  351 active torsions:
REMARK  status: ('A' for Active; 'I' for Inactive)
REMARK    1  A    between atoms: _1  and  _3
REMARK    2  A    between atoms: _3  and  _4
REMARK    3  A    between atoms: _3  and  _6
REMARK    4  A    between atoms: _6  and  _7
REMARK    5  A    between atoms: _7  and  _8
REMARK    6  A    between atoms: _10  and  _12
REMARK    7  A    between atoms: _12  and  _13
REMARK    8  A    between atoms: _12  and  _15
REMARK    9  A    between atoms: _15  and  _16
REMARK   10  A    between atoms: _16  and  _17
REMARK   11  A    between atoms: _17  and  _18
REMARK   12  A    between atoms: _27  and  _29
REMARK   13  A    between atoms: _29  and  _30
REMARK   14  A    between atoms: _29  and  _32
REMARK   15  A    between atoms: _32  and  _33
REMARK   16  A    between atoms: _38  and  _39
REMARK   17  A    between atoms: _41  and  _43
REMARK   18  A    between atoms: _43  and  _44
REMARK   19  A    between atoms: _43  and  _46
REMARK   20  A    between atoms: _46  and  _47
REMARK   21  A    between atoms: _53  and  _55
REMARK   22  A    between atoms: _55  and  _56
REMARK   23  A    between atoms: _55  and  _58
REMARK   24  A    between atoms: _58  and  _59
REMARK   25  A    between atoms: _64  and  _65
REMARK   26  A    between atoms: _67  and  _69
REMARK   27  A    between atoms: _69  and  _70
REMARK   28  A    between atoms: _69  and  _72
REMARK   29  A    between atoms: _72  and  _73
REMARK   30  A    between atoms: _79  and  _81
REMARK   31  A    between atoms: _81  and  _82
REMARK   32  A    between atoms: _81  and  _84
REMARK   33  A    between atoms: _84  and  _85
REMARK   34  A    between atoms: _88  and  _90
REMARK   35  A    between atoms: _90  and  _91
REMARK   36  A    between atoms: _90  and  _93
REMARK   37  A    between atoms: _93  and  _94
REMARK   38  A    between atoms: _96  and  _98
REMARK   39  A    between atoms: _98  and  _99
REMARK   40  A    between atoms: _98  and  _101
REMARK   41  A    between atoms: _104  and  _106
REMARK   42  A    between atoms: _106  and  _107
REMARK   43  A    between atoms: _109  and  _111
REMARK   44  A    between atoms: _111  and  _112
REMARK   45  A    between atoms: _111  and  _114
REMARK   46  A    between atoms: _114  and  _115
REMARK   47  A    between atoms: _121  and  _123
REMARK   48  A    between atoms: _123  and  _124
REMARK   49  A    between atoms: _123  and  _126
REMARK   50  A    between atoms: _129  and  _131
REMARK   51  A    between atoms: _131  and  _132
REMARK   52  A    between atoms: _131  and  _134
REMARK   53  A    between atoms: _134  and  _135
REMARK   54  A    between atoms: _135  and  _136
REMARK   55  A    between atoms: _136  and  _137
REMARK   56  A    between atoms: _146  and  _148
REMARK   57  A    between atoms: _148  and  _149
REMARK   58  A    between atoms: _148  and  _151
REMARK   59  A    between atoms: _151  and  _152
REMARK   60  A    between atoms: _158  and  _160
REMARK   61  A    between atoms: _160  and  _161
REMARK   62  A    between atoms: _160  and  _163
REMARK   63  A    between atoms: _163  and  _164
REMARK   64  A    between atoms: _164  and  _165
REMARK   65  A    between atoms: _168  and  _170
REMARK   66  A    between atoms: _170  and  _171
REMARK   67  A    between atoms: _170  and  _173
REMARK   68  A    between atoms: _173  and  _174
REMARK   69  A    between atoms: _174  and  _175
REMARK   70  A    between atoms: _178  and  _180
REMARK   71  A    between atoms: _180  and  _181
REMARK   72  A    between atoms: _180  and  _183
REMARK   73  A    between atoms: _183  and  _184
REMARK   74  A    between atoms: _187  and  _189
REMARK   75  A    between atoms: _189  and  _190
REMARK   76  A    between atoms: _189  and  _192
REMARK   77  A    between atoms: _192  and  _193
REMARK   78  A    between atoms: _193  and  _194
REMARK   79  A    between atoms: _197  and  _199
REMARK   80  A    between atoms: _199  and  _200
REMARK   81  A    between atoms: _199  and  _202
REMARK   82  A    between atoms: _202  and  _203
REMARK   83  A    between atoms: _203  and  _204
REMARK   84  A    between atoms: _207  and  _209
REMARK   85  A    between atoms: _209  and  _210
REMARK   86  A    between atoms: _209  and  _212
REMARK   87  A    between atoms: _212  and  _213
REMARK   88  A    between atoms: _218  and  _219
REMARK   89  A    between atoms: _221  and  _223
REMARK   90  A    between atoms: _223  and  _224
REMARK   91  A    between atoms: _223  and  _226
REMARK   92  A    between atoms: _226  and  _227
REMARK   93  A    between atoms: _237  and  _239
REMARK   94  A    between atoms: _239  and  _240
REMARK   95  A    between atoms: _239  and  _242
REMARK   96  A    between atoms: _242  and  _243
REMARK   97  A    between atoms: _246  and  _248
REMARK   98  A    between atoms: _248  and  _249
REMARK   99  A    between atoms: _248  and  _251
REMARK  100  A    between atoms: _251  and  _252
REMARK  101  A    between atoms: _252  and  _253
REMARK  102  A    between atoms: _253  and  _254
REMARK  103  A    between atoms: _263  and  _265
REMARK  104  A    between atoms: _265  and  _266
REMARK  105  A    between atoms: _265  and  _268
REMARK  106  A    between atoms: _268  and  _269
REMARK  107  A    between atoms: _274  and  _276
REMARK  108  A    between atoms: _276  and  _277
REMARK  109  A    between atoms: _276  and  _279
REMARK  110  A    between atoms: _279  and  _280
REMARK  111  A    between atoms: _283  and  _285
REMARK  112  A    between atoms: _285  and  _286
REMARK  113  A    between atoms: _285  and  _288
REMARK  114  A    between atoms: _288  and  _289
REMARK  115  A    between atoms: _289  and  _290
REMARK  116  A    between atoms: _295  and  _297
REMARK  117  A    between atoms: _297  and  _298
REMARK  118  A    between atoms: _297  and  _300
REMARK  119  A    between atoms: _300  and  _301
REMARK  120  A    between atoms: _304  and  _306
REMARK  121  A    between atoms: _306  and  _307
REMARK  122  A    between atoms: _306  and  _309
REMARK  123  A    between atoms: _311  and  _313
REMARK  124  A    between atoms: _313  and  _314
REMARK  125  A    between atoms: _313  and  _316
REMARK  126  A    between atoms: _316  and  _317
REMARK  127  A    between atoms: _320  and  _322
REMARK  128  A    between atoms: _322  and  _323
REMARK  129  A    between atoms: _322  and  _325
REMARK  130  A    between atoms: _325  and  _326
REMARK  131  A    between atoms: _331  and  _333
REMARK  132  A    between atoms: _333  and  _334
REMARK  133  A    between atoms: _333  and  _336
REMARK  134  A    between atoms: _336  and  _337
REMARK  135  A    between atoms: _337  and  _338
REMARK  136  A    between atoms: _343  and  _345
REMARK  137  A    between atoms: _345  and  _346
REMARK  138  A    between atoms: _345  and  _348
REMARK  139  A    between atoms: _348  and  _349
REMARK  140  A    between atoms: _352  and  _354
REMARK  141  A    between atoms: _354  and  _355
REMARK  142  A    between atoms: _354  and  _357
REMARK  143  A    between atoms: _357  and  _358
REMARK  144  A    between atoms: _361  and  _363
REMARK  145  A    between atoms: _363  and  _364
REMARK  146  A    between atoms: _363  and  _366
REMARK  147  A    between atoms: _366  and  _367
REMARK  148  A    between atoms: _367  and  _368
REMARK  149  A    between atoms: _368  and  _369
REMARK  150  A    between atoms: _378  and  _380
REMARK  151  A    between atoms: _380  and  _381
REMARK  152  A    between atoms: _380  and  _383
REMARK  153  A    between atoms: _383  and  _384
REMARK  154  A    between atoms: _384  and  _385
REMARK  155  A    between atoms: _388  and  _390
REMARK  156  A    between atoms: _390  and  _391
REMARK  157  A    between atoms: _390  and  _393
REMARK  158  A    between atoms: _393  and  _394
REMARK  159  A    between atoms: _396  and  _398
REMARK  160  A    between atoms: _398  and  _399
REMARK  161  A    between atoms: _398  and  _401
REMARK  162  A    between atoms: _401  and  _402
REMARK  163  A    between atoms: _405  and  _407
REMARK  164  A    between atoms: _407  and  _408
REMARK  165  A    between atoms: _407  and  _410
REMARK  166  A    between atoms: _410  and  _411
REMARK  167  A    between atoms: _411  and  _412
REMARK  168  A    between atoms: _412  and  _413
REMARK  169  A    between atoms: _422  and  _424
REMARK  170  A    between atoms: _424  and  _425
REMARK  171  A    between atoms: _424  and  _427
REMARK  172  A    between atoms: _427  and  _428
REMARK  173  A    between atoms: _433  and  _435
REMARK  174  A    between atoms: _435  and  _436
REMARK  175  A    between atoms: _435  and  _438
REMARK  176  A    between atoms: _438  and  _439
REMARK  177  A    between atoms: _442  and  _444
REMARK  178  A    between atoms: _444  and  _445
REMARK  179  A    between atoms: _444  and  _447
REMARK  180  A    between atoms: _447  and  _448
REMARK  181  A    between atoms: _453  and  _454
REMARK  182  A    between atoms: _456  and  _458
REMARK  183  A    between atoms: _458  and  _459
REMARK  184  A    between atoms: _458  and  _461
REMARK  185  A    between atoms: _461  and  _462
REMARK  186  A    between atoms: _465  and  _467
REMARK  187  A    between atoms: _467  and  _468
REMARK  188  A    between atoms: _467  and  _470
REMARK  189  A    between atoms: _470  and  _471
REMARK  190  A    between atoms: _471  and  _472
REMARK  191  A    between atoms: _477  and  _479
REMARK  192  A    between atoms: _479  and  _480
REMARK  193  A    between atoms: _479  and  _482
REMARK  194  A    between atoms: _482  and  _483
REMARK  195  A    between atoms: _483  and  _484
REMARK  196  A    between atoms: _484  and  _485
REMARK  197  A    between atoms: _494  and  _496
REMARK  198  A    between atoms: _496  and  _497
REMARK  199  A    between atoms: _496  and  _499
REMARK  200  A    between atoms: _499  and  _500
REMARK  201  A    between atoms: _505  and  _506
REMARK  202  A    between atoms: _508  and  _510
REMARK  203  A    between atoms: _510  and  _511
REMARK  204  A    between atoms: _513  and  _515
REMARK  205  A    between atoms: _515  and  _516
REMARK  206  A    between atoms: _515  and  _518
REMARK  207  A    between atoms: _518  and  _519
REMARK  208  A    between atoms: _524  and  _526
REMARK  209  A    between atoms: _526  and  _527
REMARK  210  A    between atoms: _526  and  _529
REMARK  211  A    between atoms: _529  and  _530
REMARK  212  A    between atoms: _530  and  _531
REMARK  213  A    between atoms: _536  and  _538
REMARK  214  A    between atoms: _538  and  _539
REMARK  215  A    between atoms: _538  and  _541
REMARK  216  A    between atoms: _541  and  _542
REMARK  217  A    between atoms: _548  and  _550
REMARK  218  A    between atoms: _550  and  _551
REMARK  219  A    between atoms: _554  and  _556
REMARK  220  A    between atoms: _556  and  _557
REMARK  221  A    between atoms: _556  and  _559
REMARK  222  A    between atoms: _559  and  _560
REMARK  223  A    between atoms: _565  and  _566
REMARK  224  A    between atoms: _568  and  _570
REMARK  225  A    between atoms: _570  and  _571
REMARK  226  A    between atoms: _570  and  _573
REMARK  227  A    between atoms: _573  and  _574
REMARK  228  A    between atoms: _579  and  _580
REMARK  229  A    between atoms: _582  and  _584
REMARK  230  A    between atoms: _584  and  _585
REMARK  231  A    between atoms: _584  and  _587
REMARK  232  A    between atoms: _587  and  _588
REMARK  233  A    between atoms: _591  and  _593
REMARK  234  A    between atoms: _593  and  _594
REMARK  235  A    between atoms: _593  and  _596
REMARK  236  A    between atoms: _596  and  _597
REMARK  237  A    between atoms: _607  and  _609
REMARK  238  A    between atoms: _609  and  _610
REMARK  239  A    between atoms: _613  and  _615
REMARK  240  A    between atoms: _615  and  _616
REMARK  241  A    between atoms: _619  and  _621
REMARK  242  A    between atoms: _621  and  _622
REMARK  243  A    between atoms: _621  and  _624
REMARK  244  A    between atoms: _624  and  _625
REMARK  245  A    between atoms: _625  and  _626
REMARK  246  A    between atoms: _631  and  _633
REMARK  247  A    between atoms: _633  and  _634
REMARK  248  A    between atoms: _633  and  _636
REMARK  249  A    between atoms: _636  and  _637
REMARK  250  A    between atoms: _640  and  _642
REMARK  251  A    between atoms: _642  and  _643
REMARK  252  A    between atoms: _642  and  _645
REMARK  253  A    between atoms: _645  and  _646
REMARK  254  A    between atoms: _649  and  _651
REMARK  255  A    between atoms: _651  and  _652
REMARK  256  A    between atoms: _651  and  _654
REMARK  257  A    between atoms: _654  and  _655
REMARK  258  A    between atoms: _655  and  _656
REMARK  259  A    between atoms: _661  and  _663
REMARK  260  A    between atoms: _663  and  _664
REMARK  261  A    between atoms: _663  and  _666
REMARK  262  A    between atoms: _666  and  _667
REMARK  263  A    between atoms: _667  and  _668
REMARK  264  A    between atoms: _668  and  _669
REMARK  265  A    between atoms: _678  and  _680
REMARK  266  A    between atoms: _680  and  _681
REMARK  267  A    between atoms: _680  and  _683
REMARK  268  A    between atoms: _683  and  _684
REMARK  269  A    between atoms: _684  and  _685
REMARK  270  A    between atoms: _685  and  _686
REMARK  271  A    between atoms: _686  and  _687
REMARK  272  A    between atoms: _691  and  _693
REMARK  273  A    between atoms: _693  and  _694
REMARK  274  A    between atoms: _693  and  _696
REMARK  275  A    between atoms: _696  and  _697
REMARK  276  A    between atoms: _707  and  _709
REMARK  277  A    between atoms: _709  and  _710
REMARK  278  A    between atoms: _713  and  _715
REMARK  279  A    between atoms: _715  and  _716
REMARK  280  A    between atoms: _719  and  _721
REMARK  281  A    between atoms: _721  and  _722
REMARK  282  A    between atoms: _721  and  _724
REMARK  283  A    between atoms: _724  and  _725
REMARK  284  A    between atoms: _725  and  _726
REMARK  285  A    between atoms: _726  and  _727
REMARK  286  A    between atoms: _736  and  _738
REMARK  287  A    between atoms: _738  and  _739
REMARK  288  A    between atoms: _738  and  _741
REMARK  289  A    between atoms: _744  and  _746
REMARK  290  A    between atoms: _746  and  _747
REMARK  291  A    between atoms: _750  and  _752
REMARK  292  A    between atoms: _752  and  _753
REMARK  293  A    between atoms: _752  and  _755
REMARK  294  A    between atoms: _755  and  _756
REMARK  295  A    between atoms: _756  and  _757
REMARK  296  A    between atoms: _760  and  _762
REMARK  297  A    between atoms: _762  and  _763
REMARK  298  A    between atoms: _762  and  _765
REMARK  299  A    between atoms: _765  and  _766
REMARK  300  A    between atoms: _766  and  _767
REMARK  301  A    between atoms: _772  and  _774
REMARK  302  A    between atoms: _774  and  _775
REMARK  303  A    between atoms: _774  and  _777
REMARK  304  A    between atoms: _777  and  _778
REMARK  305  A    between atoms: _781  and  _783
REMARK  306  A    between atoms: _783  and  _784
REMARK  307  A    between atoms: _783  and  _786
REMARK  308  A    between atoms: _786  and  _787
REMARK  309  A    between atoms: _787  and  _788
REMARK  310  A    between atoms: _788  and  _789
REMARK  311  A    between atoms: _798  and  _800
REMARK  312  A    between atoms: _800  and  _801
REMARK  313  A    between atoms: _800  and  _803
REMARK  314  A    between atoms: _803  and  _804
REMARK  315  A    between atoms: _807  and  _809
REMARK  316  A    between atoms: _809  and  _810
REMARK  317  A    between atoms: _809  and  _812
REMARK  318  A    between atoms: _812  and  _813
REMARK  319  A    between atoms: _818  and  _819
REMARK  320  A    between atoms: _821  and  _823
REMARK  321  A    between atoms: _823  and  _824
REMARK  322  A    between atoms: _823  and  _826
REMARK  323  A    between atoms: _826  and  _827
REMARK  324  A    between atoms: _830  and  _832
REMARK  325  A    between atoms: _832  and  _833
REMARK  326  A    between atoms: _832  and  _835
REMARK  327  A    between atoms: _835  and  _836
REMARK  328  A    between atoms: _839  and  _841
REMARK  329  A    between atoms: _841  and  _842
REMARK  330  A    between atoms: _841  and  _844
REMARK  331  A    between atoms: _846  and  _848
REMARK  332  A    between atoms: _848  and  _849
REMARK  333  A    between atoms: _848  and  _851
REMARK  334  A    between atoms: _854  and  _856
REMARK  335  A    between atoms: _856  and  _857
REMARK  336  A    between atoms: _856  and  _859
REMARK  337  A    between atoms: _859  and  _860
REMARK  338  A    between atoms: _860  and  _861
REMARK  339  A    between atoms: _864  and  _866
REMARK  340  A    between atoms: _866  and  _867
REMARK  341  A    between atoms: _866  and  _869
REMARK  342  A    between atoms: _869  and  _870
REMARK  343  A    between atoms: _880  and  _882
REMARK  344  A    between atoms: _882  and  _883
REMARK  345  A    between atoms: _882  and  _885
REMARK  346  A    between atoms: _885  and  _886
REMARK  347  A    between atoms: _889  and  _891
REMARK  348  A    between atoms: _891  and  _892
REMARK  349  A    between atoms: _891  and  _894
REMARK  350  A    between atoms: _894  and  _895
REMARK  351  A    between atoms: _900  and  _901
REMARK                            x       y       z     vdW  Elec       q    Type
REMARK                         _______ _______ _______ _____ _____    ______ ____
ROOT
ATOM      1  CA  ARG A   5       9.272   6.864  43.983  0.00  0.00    +0.149 C 
ENDROOT
BRANCH   1   2
ATOM      2  C   ARG A   5       8.795   6.907  42.537  0.00  0.00    +0.241 C 
ATOM      3  O   ARG A   5       7.598   6.997  42.271  0.00  0.00    -0.273 OA
ATOM      4  N   ASN A   6       9.737   6.849  41.601  0.00  0.00    -0.297 N 
ATOM      5  H   ASN A   6      10.735   6.759  41.879  0.00  0.00    +0.150 HD
BRANCH   4   6
ATOM      6  CA  ASN A   6       9.382   6.910  40.188  0.00  0.00    +0.158 C 
BRANCH   6   7
ATOM      7  C   ASN A   6       8.621   5.675  39.715  0.00  0.00    +0.241 C 
ATOM      8  N   THR A   7       8.972   4.513  40.256  0.00  0.00    -0.295 N 
ATOM      9  H   THR A   7       9.790   4.473  40.897  0.00  0.00    +0.150 HD
ATOM     10  O   ASN A   6       7.720   5.775  38.884  0.00  0.00    -0.273 OA
BRANCH   8  11
ATOM     11  CA  THR A   7       8.228   3.293  39.964  0.00  0.00    +0.176 C 
BRANCH  11  12
ATOM     12  C   THR A   7       6.781   3.434  40.426  0.00  0.00    +0.243 C 
ATOM     13  N   GLN A   8       6.605   3.974  41.628  0.00  0.00    -0.297 N 
ATOM     14  H   GLN A   8       7.439   4.255  42.181  0.00  0.00    +0.150 HD
ATOM     15  O   THR A   7       5.848   3.067  39.712  0.00  0.00    -0.273 OA
BRANCH  13  16
ATOM     16  CA  GLN A   8       5.278   4.184  42.194  0.00  0.00    +0.149 C 
BRANCH  16  17
ATOM     17  C   GLN A   8       4.448   5.107  41.305  0.00  0.00    +0.241 C 
ATOM     18  O   GLN A   8       3.273   4.846  41.043  0.00  0.00    -0.273 OA
ATOM     19  N   ILE A   9       5.070   6.184  40.836  0.00  0.00    -0.297 N 
ATOM     20  H   ILE A   9       6.061   6.356  41.101  0.00  0.00    +0.150 HD
BRANCH  19  21
ATOM     21  CA  ILE A   9       4.391   7.130  39.958  0.00  0.00    +0.149 C 
BRANCH  21  22
ATOM     22  C   ILE A   9       3.978   6.459  38.650  0.00  0.00    +0.241 C 
ATOM     23  O   ILE A   9       2.861   6.656  38.172  0.00  0.00    -0.273 OA
ATOM     24  N   CYS A  10       4.873   5.653  38.085  0.00  0.00    -0.297 N 
ATOM     25  H   CYS A  10       5.805   5.534  38.532  0.00  0.00    +0.150 HD
BRANCH  24  26
ATOM     26  CA  CYS A  10       4.574   4.931  36.849  0.00  0.00    +0.149 C 
BRANCH  26  27
ATOM     27  C   CYS A  10       3.433   3.932  37.017  0.00  0.00    +0.228 C 
ATOM     28  O   CYS A  10       2.607   3.764  36.119  0.00  0.00    -0.286 OA
ENDBRANCH  26  27
BRANCH  26  29
ATOM     29  CB  CYS A  10       5.819   4.220  36.314  0.00  0.00    +0.096 C 
ATOM     30  SG  CYS A  10       7.021   5.324  35.543  0.00  0.00    -0.080 S 
ENDBRANCH  26  29
ENDBRANCH  24  26
ENDBRANCH  21  22
BRANCH  21  31
ATOM     31  CB  ILE A   9       5.262   8.369  39.678  0.00  0.00    +0.027 C 
ATOM     32  CG2 ILE A   9       4.645   9.220  38.574  0.00  0.00    +0.002 C 
BRANCH  31  33
ATOM     33  CG1 ILE A   9       5.423   9.195  40.958  0.00  0.00    +0.002 C 
ATOM     34  CD1 ILE A   9       6.409  10.334  40.835  0.00  0.00    +0.000 C 
ENDBRANCH  31  33
ENDBRANCH  21  31
ENDBRANCH  19  21
ENDBRANCH  16  17
BRANCH  16  35
ATOM     35  CB  GLN A   8       5.395   4.765  43.606  0.00  0.00    +0.039 C 
BRANCH  35  36
ATOM     36  CG  GLN A   8       4.069   4.972  44.322  0.00  0.00    +0.087 C 
BRANCH  36  37
ATOM     37  CD  GLN A   8       4.251   5.497  45.735  0.00  0.00    +0.219 C 
ATOM     38  OE1 GLN A   8       3.562   5.069  46.663  0.00  0.00    -0.275 OA
ATOM     39  NE2 GLN A   8       5.189   6.423  45.907  0.00  0.00    -0.329 N 
ATOM     40 HE21 GLN A   8       5.365   6.815  46.854  0.00  0.00    +0.145 HD
ATOM     41 HE22 GLN A   8       5.747   6.755  45.095  0.00  0.00    +0.145 HD
ENDBRANCH  36  37
ENDBRANCH  35  36
ENDBRANCH  16  35
ENDBRANCH  13  16
ENDBRANCH  11  12
BRANCH  11  42
ATOM     42  CB  THR A   7       8.865   2.066  40.643  0.00  0.00    +0.137 C 
ATOM     43  CG2 THR A   7       7.977   0.837  40.477  0.00  0.00    +0.034 C 
BRANCH  42  44
ATOM     44  OG1 THR A   7      10.142   1.805  40.053  0.00  0.00    -0.382 OA
ATOM     45  HG1 THR A   7      10.728   2.593  40.176  0.00  0.00    +0.210 HD
ENDBRANCH  42  44
ENDBRANCH  11  42
ENDBRANCH   8  11
ENDBRANCH   6   7
BRANCH   6  46
ATOM     46  CB  ASN A   6      10.616   7.183  39.326  0.00  0.00    +0.114 C 
BRANCH  46  47
ATOM     47  CG  ASN A   6      11.046   8.638  39.381  0.00  0.00    +0.222 C 
ATOM     48  ND2 ASN A   6      12.326   8.870  39.644  0.00  0.00    -0.329 N 
ATOM     49 HD21 ASN A   6      12.979   8.074  39.794  0.00  0.00    +0.145 HD
ATOM     50 HD22 ASN A   6      12.677   9.848  39.700  0.00  0.00    +0.145 HD
ATOM     51  OD1 ASN A   6      10.232   9.543  39.195  0.00  0.00    -0.275 OA
ENDBRANCH  46  47
ENDBRANCH   6  46
ENDBRANCH   4   6
ENDBRANCH   1   2
BRANCH   1  53
ATOM     52  C   ASP A   4       9.907   4.514  44.027  0.00  0.00    +0.241 C 
ATOM     53  N   ARG A   5      10.238   5.791  44.185  0.00  0.00    -0.297 N 
ATOM     54  H   ARG A   5      11.212   6.031  44.460  0.00  0.00    +0.150 HD
ATOM     55  O   ASP A   4       8.784   4.151  43.672  0.00  0.00    -0.273 OA
BRANCH  52  56
ATOM     56  CA  ASP A   4      11.006   3.491  44.308  0.00  0.00    +0.160 C 
BRANCH  56  58
ATOM     57  C   TRP A   3      12.409   3.889  42.362  0.00  0.00    +0.241 C 
ATOM     58  N   ASP A   4      12.267   3.876  43.684  0.00  0.00    -0.297 N 
ATOM     59  H   ASP A   4      13.071   4.146  44.285  0.00  0.00    +0.150 HD
ATOM     60  O   TRP A   3      11.511   3.555  41.589  0.00  0.00    -0.273 OA
BRANCH  57  61
ATOM     61  CA  TRP A   3      13.754   4.365  41.827  0.00  0.00    +0.153 C 
BRANCH  61  63
ATOM     62  C   TYR A   2      13.769   6.662  42.616  0.00  0.00    +0.241 C 
ATOM     63  N   TRP A   3      14.311   5.450  42.623  0.00  0.00    -0.297 N 
ATOM     64  H   TRP A   3      15.151   5.272  43.209  0.00  0.00    +0.150 HD
ATOM     65  O   TYR A   2      12.730   6.926  42.011  0.00  0.00    -0.273 OA
BRANCH  62  66
ATOM     66  CA  TYR A   2      14.509   7.730  43.414  0.00  0.00    +0.153 C 
BRANCH  66  69
ATOM     67  C   GLU A   1      13.836   6.887  45.602  0.00  0.00    +0.238 C 
ATOM     68  O   GLU A   1      12.639   6.941  45.320  0.00  0.00    -0.274 OA
ATOM     69  N   TYR A   2      14.798   7.256  44.762  0.00  0.00    -0.297 N 
ATOM     70  H   TYR A   2      15.788   7.205  45.076  0.00  0.00    +0.150 HD
BRANCH  67  71
ATOM     71  CA  GLU A   1      14.297   6.380  46.964  0.00  0.00    +0.145 C 
BRANCH  71  72
ATOM     72  N   GLU A   1      15.466   5.520  46.830  0.00  0.00    -0.238 NA
ATOM     73  H   GLU A   1      16.351   5.786  47.308  0.00  0.00    +0.142 HD
ENDBRANCH  71  72
BRANCH  71  74
ATOM     74  CB  GLU A   1      14.590   7.562  47.893  0.00  0.00    +0.038 C 
BRANCH  74  75
ATOM     75  CG  GLU A   1      14.680   7.198  49.370  0.00  0.00    +0.116 C 
BRANCH  75  76
ATOM     76  CD  GLU A   1      15.956   6.457  49.721  0.00  0.00    +0.365 C 
ATOM     77  OE2 GLU A   1      16.000   5.829  50.801  0.00  0.00    -0.246 OA
ATOM     78  OE1 GLU A   1      16.918   6.509  48.923  0.00  0.00    -0.246 OA
ENDBRANCH  75  76
ENDBRANCH  74  75
ENDBRANCH  71  74
ENDBRANCH  67  71
ENDBRANCH  66  69
BRANCH  66  79
ATOM     79  CB  TYR A   2      15.811   8.104  42.700  0.00  0.00    +0.055 C 
BRANCH  79  80
ATOM     80  CG  TYR A   2      15.638   8.534  41.259  0.00  0.00    -0.020 A 
ATOM     81  CD2 TYR A   2      15.479   9.874  40.929  0.00  0.00    -0.001 A 
ATOM     82  CE2 TYR A   2      15.327  10.274  39.614  0.00  0.00    +0.036 A 
ATOM     83  CZ  TYR A   2      15.330   9.328  38.609  0.00  0.00    +0.134 A 
ATOM     84  CE1 TYR A   2      15.487   7.991  38.909  0.00  0.00    +0.036 A 
ATOM     85  CD1 TYR A   2      15.641   7.601  40.228  0.00  0.00    -0.001 A 
BRANCH  83  86
ATOM     86  OH  TYR A   2      15.177   9.722  37.301  0.00  0.00    -0.506 OA
ATOM     87  HH  TYR A   2      15.077  10.706  37.264  0.00  0.00    +0.292 HD
ENDBRANCH  83  86
ENDBRANCH  79  80
ENDBRANCH  66  79
ENDBRANCH  62  66
ENDBRANCH  61  63
BRANCH  61  88
ATOM     88  CB  TRP A   3      14.759   3.217  41.719  0.00  0.00    +0.057 C 
BRANCH  88  89
ATOM     89  CG  TRP A   3      16.022   3.662  41.056  0.00  0.00    -0.002 A 
ATOM     90  CD1 TRP A   3      17.228   3.887  41.652  0.00  0.00    +0.068 A 
ATOM     91  NE1 TRP A   3      18.145   4.312  40.719  0.00  0.00    -0.352 N 
ATOM     92  HE1 TRP A   3      19.140   4.545  40.912  0.00  0.00    +0.166 HD
ATOM     93  CE2 TRP A   3      17.534   4.379  39.495  0.00  0.00    +0.056 A 
ATOM     94  CZ2 TRP A   3      18.046   4.753  38.253  0.00  0.00    +0.017 A 
ATOM     95  CH2 TRP A   3      17.192   4.725  37.185  0.00  0.00    +0.001 A 
ATOM     96  CZ3 TRP A   3      15.852   4.334  37.328  0.00  0.00    +0.000 A 
ATOM     97  CE3 TRP A   3      15.343   3.964  38.559  0.00  0.00    +0.001 A 
ATOM     98  CD2 TRP A   3      16.193   3.981  39.670  0.00  0.00    +0.013 A 
ENDBRANCH  88  89
ENDBRANCH  61  88
ENDBRANCH  57  61
ENDBRANCH  56  58
BRANCH  56  99
ATOM     99  CB  ASP A   4      11.185   3.306  45.817  0.00  0.00    +0.143 C 
BRANCH  99 100
ATOM    100  CG  ASP A   4      11.944   2.040  46.163  0.00  0.00    +0.367 C 
ATOM    101  OD2 ASP A   4      12.371   1.901  47.328  0.00  0.00    -0.246 OA
ATOM    102  OD1 ASP A   4      12.109   1.179  45.271  0.00  0.00    -0.246 OA
ENDBRANCH  99 100
ENDBRANCH  56  99
ENDBRANCH  52  56
ENDBRANCH   1  53
BRANCH   1 103
ATOM    103  CB  ARG A   5       9.881   8.215  44.368  0.00  0.00    +0.033 C 
BRANCH 103 104
ATOM    104  CG  ARG A   5       8.968   9.414  44.133  0.00  0.00    +0.045 C 
BRANCH 104 105
ATOM    105  CD  ARG A   5       7.995   9.615  45.286  0.00  0.00    +0.174 C 
BRANCH 105 106
ATOM    106  NE  ARG A   5       6.718   8.942  45.067  0.00  0.00    -0.265 N 
ATOM    107  HE  ARG A   5       6.678   7.913  45.210  0.00  0.00    +0.259 HD
ATOM    108  CZ  ARG A   5       5.603   9.563  44.696  0.00  0.00    +0.342 C 
ATOM    109  NH2 ARG A   5       4.484   8.874  44.521  0.00  0.00    -0.292 N 
ATOM    110 HH21 ARG A   5       4.477   7.845  44.674  0.00  0.00    +0.255 HD
ATOM    111 HH22 ARG A   5       3.613   9.362  44.231  0.00  0.00    +0.255 HD
ATOM    112  NH1 ARG A   5       5.605  10.875  44.502  0.00  0.00    -0.292 N 
ATOM    113 HH11 ARG A   5       6.480  11.420  44.640  0.00  0.00    +0.255 HD
ATOM    114 HH12 ARG A   5       4.731  11.359  44.212  0.00  0.00    +0.255 HD
ENDBRANCH 105 106
ENDBRANCH 104 105
ENDBRANCH 103 104
ENDBRANCH   1 103
TORSDOF 44
REMARK  Name = ../refined-set-2016/4o2c/4o2c_pocket.pdb
REMARK  351 active torsions:
REMARK  status: ('A' for Active; 'I' for Inactive)
REMARK    1  A    between atoms: _1  and  _3
REMARK    2  A    between atoms: _3  and  _4
REMARK    3  A    between atoms: _3  and  _6
REMARK    4  A    between atoms: _6  and  _7
REMARK    5  A    between atoms: _7  and  _8
REMARK    6  A    between atoms: _10  and  _12
REMARK    7  A    between atoms: _12  and  _13
REMARK    8  A    between atoms: _12  and  _15
REMARK    9  A    between atoms: _15  and  _16
REMARK   10  A    between atoms: _16  and  _17
REMARK   11  A    between atoms: _17  and  _18
REMARK   12  A    between atoms: _27  and  _29
REMARK   13  A    between atoms: _29  and  _30
REMARK   14  A    between atoms: _29  and  _32
REMARK   15  A    between atoms: _32  and  _33
REMARK   16  A    between atoms: _38  and  _39
REMARK   17  A    between atoms: _41  and  _43
REMARK   18  A    between atoms: _43  and  _44
REMARK   19  A    between atoms: _43  and  _46
REMARK   20  A    between atoms: _46  and  _47
REMARK   21  A    between atoms: _53  and  _55
REMARK   22  A    between atoms: _55  and  _56
REMARK   23  A    between atoms: _55  and  _58
REMARK   24  A    between atoms: _58  and  _59
REMARK   25  A    between atoms: _64  and  _65
REMARK   26  A    between atoms: _67  and  _69
REMARK   27  A    between atoms: _69  and  _70
REMARK   28  A    between atoms: _69  and  _72
REMARK   29  A    between atoms: _72  and  _73
REMARK   30  A    between atoms: _79  and  _81
REMARK   31  A    between atoms: _81  and  _82
REMARK   32  A    between atoms: _81  and  _84
REMARK   33  A    between atoms: _84  and  _85
REMARK   34  A    between atoms: _88  and  _90
REMARK   35  A    between atoms: _90  and  _91
REMARK   36  A    between atoms: _90  and  _93
REMARK   37  A    between atoms: _93  and  _94
REMARK   38  A    between atoms: _96  and  _98
REMARK   39  A    between atoms: _98  and  _99
REMARK   40  A    between atoms: _98  and  _101
REMARK   41  A    between atoms: _104  and  _106
REMARK   42  A    between atoms: _106  and  _107
REMARK   43  A    between atoms: _109  and  _111
REMARK   44  A    between atoms: _111  and  _112
REMARK   45  A    between atoms: _111  and  _114
REMARK   46  A    between atoms: _114  and  _115
REMARK   47  A    between atoms: _121  and  _123
REMARK   48  A    between atoms: _123  and  _124
REMARK   49  A    between atoms: _123  and  _126
REMARK   50  A    between atoms: _129  and  _131
REMARK   51  A    between atoms: _131  and  _132
REMARK   52  A    between atoms: _131  and  _134
REMARK   53  A    between atoms: _134  and  _135
REMARK   54  A    between atoms: _135  and  _136
REMARK   55  A    between atoms: _136  and  _137
REMARK   56  A    between atoms: _146  and  _148
REMARK   57  A    between atoms: _148  and  _149
REMARK   58  A    between atoms: _148  and  _151
REMARK   59  A    between atoms: _151  and  _152
REMARK   60  A    between atoms: _158  and  _160
REMARK   61  A    between atoms: _160  and  _161
REMARK   62  A    between atoms: _160  and  _163
REMARK   63  A    between atoms: _163  and  _164
REMARK   64  A    between atoms: _164  and  _165
REMARK   65  A    between atoms: _168  and  _170
REMARK   66  A    between atoms: _170  and  _171
REMARK   67  A    between atoms: _170  and  _173
REMARK   68  A    between atoms: _173  and  _174
REMARK   69  A    between atoms: _174  and  _175
REMARK   70  A    between atoms: _178  and  _180
REMARK   71  A    between atoms: _180  and  _181
REMARK   72  A    between atoms: _180  and  _183
REMARK   73  A    between atoms: _183  and  _184
REMARK   74  A    between atoms: _187  and  _189
REMARK   75  A    between atoms: _189  and  _190
REMARK   76  A    between atoms: _189  and  _192
REMARK   77  A    between atoms: _192  and  _193
REMARK   78  A    between atoms: _193  and  _194
REMARK   79  A    between atoms: _197  and  _199
REMARK   80  A    between atoms: _199  and  _200
REMARK   81  A    between atoms: _199  and  _202
REMARK   82  A    between atoms: _202  and  _203
REMARK   83  A    between atoms: _203  and  _204
REMARK   84  A    between atoms: _207  and  _209
REMARK   85  A    between atoms: _209  and  _210
REMARK   86  A    between atoms: _209  and  _212
REMARK   87  A    between atoms: _212  and  _213
REMARK   88  A    between atoms: _218  and  _219
REMARK   89  A    between atoms: _221  and  _223
REMARK   90  A    between atoms: _223  and  _224
REMARK   91  A    between atoms: _223  and  _226
REMARK   92  A    between atoms: _226  and  _227
REMARK   93  A    between atoms: _237  and  _239
REMARK   94  A    between atoms: _239  and  _240
REMARK   95  A    between atoms: _239  and  _242
REMARK   96  A    between atoms: _242  and  _243
REMARK   97  A    between atoms: _246  and  _248
REMARK   98  A    between atoms: _248  and  _249
REMARK   99  A    between atoms: _248  and  _251
REMARK  100  A    between atoms: _251  and  _252
REMARK  101  A    between atoms: _252  and  _253
REMARK  102  A    between atoms: _253  and  _254
REMARK  103  A    between atoms: _263  and  _265
REMARK  104  A    between atoms: _265  and  _266
REMARK  105  A    between atoms: _265  and  _268
REMARK  106  A    between atoms: _268  and  _269
REMARK  107  A    between atoms: _274  and  _276
REMARK  108  A    between atoms: _276  and  _277
REMARK  109  A    between atoms: _276  and  _279
REMARK  110  A    between atoms: _279  and  _280
REMARK  111  A    between atoms: _283  and  _285
REMARK  112  A    between atoms: _285  and  _286
REMARK  113  A    between atoms: _285  and  _288
REMARK  114  A    between atoms: _288  and  _289
REMARK  115  A    between atoms: _289  and  _290
REMARK  116  A    between atoms: _295  and  _297
REMARK  117  A    between atoms: _297  and  _298
REMARK  118  A    between atoms: _297  and  _300
REMARK  119  A    between atoms: _300  and  _301
REMARK  120  A    between atoms: _304  and  _306
REMARK  121  A    between atoms: _306  and  _307
REMARK  122  A    between atoms: _306  and  _309
REMARK  123  A    between atoms: _311  and  _313
REMARK  124  A    between atoms: _313  and  _314
REMARK  125  A    between atoms: _313  and  _316
REMARK  126  A    between atoms: _316  and  _317
REMARK  127  A    between atoms: _320  and  _322
REMARK  128  A    between atoms: _322  and  _323
REMARK  129  A    between atoms: _322  and  _325
REMARK  130  A    between atoms: _325  and  _326
REMARK  131  A    between atoms: _331  and  _333
REMARK  132  A    between atoms: _333  and  _334
REMARK  133  A    between atoms: _333  and  _336
REMARK  134  A    between atoms: _336  and  _337
REMARK  135  A    between atoms: _337  and  _338
REMARK  136  A    between atoms: _343  and  _345
REMARK  137  A    between atoms: _345  and  _346
REMARK  138  A    between atoms: _345  and  _348
REMARK  139  A    between atoms: _348  and  _349
REMARK  140  A    between atoms: _352  and  _354
REMARK  141  A    between atoms: _354  and  _355
REMARK  142  A    between atoms: _354  and  _357
REMARK  143  A    between atoms: _357  and  _358
REMARK  144  A    between atoms: _361  and  _363
REMARK  145  A    between atoms: _363  and  _364
REMARK  146  A    between atoms: _363  and  _366
REMARK  147  A    between atoms: _366  and  _367
REMARK  148  A    between atoms: _367  and  _368
REMARK  149  A    between atoms: _368  and  _369
REMARK  150  A    between atoms: _378  and  _380
REMARK  151  A    between atoms: _380  and  _381
REMARK  152  A    between atoms: _380  and  _383
REMARK  153  A    between atoms: _383  and  _384
REMARK  154  A    between atoms: _384  and  _385
REMARK  155  A    between atoms: _388  and  _390
REMARK  156  A    between atoms: _390  and  _391
REMARK  157  A    between atoms: _390  and  _393
REMARK  158  A    between atoms: _393  and  _394
REMARK  159  A    between atoms: _396  and  _398
REMARK  160  A    between atoms: _398  and  _399
REMARK  161  A    between atoms: _398  and  _401
REMARK  162  A    between atoms: _401  and  _402
REMARK  163  A    between atoms: _405  and  _407
REMARK  164  A    between atoms: _407  and  _408
REMARK  165  A    between atoms: _407  and  _410
REMARK  166  A    between atoms: _410  and  _411
REMARK  167  A    between atoms: _411  and  _412
REMARK  168  A    between atoms: _412  and  _413
REMARK  169  A    between atoms: _422  and  _424
REMARK  170  A    between atoms: _424  and  _425
REMARK  171  A    between atoms: _424  and  _427
REMARK  172  A    between atoms: _427  and  _428
REMARK  173  A    between atoms: _433  and  _435
REMARK  174  A    between atoms: _435  and  _436
REMARK  175  A    between atoms: _435  and  _438
REMARK  176  A    between atoms: _438  and  _439
REMARK  177  A    between atoms: _442  and  _444
REMARK  178  A    between atoms: _444  and  _445
REMARK  179  A    between atoms: _444  and  _447
REMARK  180  A    between atoms: _447  and  _448
REMARK  181  A    between atoms: _453  and  _454
REMARK  182  A    between atoms: _456  and  _458
REMARK  183  A    between atoms: _458  and  _459
REMARK  184  A    between atoms: _458  and  _461
REMARK  185  A    between atoms: _461  and  _462
REMARK  186  A    between atoms: _465  and  _467
REMARK  187  A    between atoms: _467  and  _468
REMARK  188  A    between atoms: _467  and  _470
REMARK  189  A    between atoms: _470  and  _471
REMARK  190  A    between atoms: _471  and  _472
REMARK  191  A    between atoms: _477  and  _479
REMARK  192  A    between atoms: _479  and  _480
REMARK  193  A    between atoms: _479  and  _482
REMARK  194  A    between atoms: _482  and  _483
REMARK  195  A    between atoms: _483  and  _484
REMARK  196  A    between atoms: _484  and  _485
REMARK  197  A    between atoms: _494  and  _496
REMARK  198  A    between atoms: _496  and  _497
REMARK  199  A    between atoms: _496  and  _499
REMARK  200  A    between atoms: _499  and  _500
REMARK  201  A    between atoms: _505  and  _506
REMARK  202  A    between atoms: _508  and  _510
REMARK  203  A    between atoms: _510  and  _511
REMARK  204  A    between atoms: _513  and  _515
REMARK  205  A    between atoms: _515  and  _516
REMARK  206  A    between atoms: _515  and  _518
REMARK  207  A    between atoms: _518  and  _519
REMARK  208  A    between atoms: _524  and  _526
REMARK  209  A    between atoms: _526  and  _527
REMARK  210  A    between atoms: _526  and  _529
REMARK  211  A    between atoms: _529  and  _530
REMARK  212  A    between atoms: _530  and  _531
REMARK  213  A    between atoms: _536  and  _538
REMARK  214  A    between atoms: _538  and  _539
REMARK  215  A    between atoms: _538  and  _541
REMARK  216  A    between atoms: _541  and  _542
REMARK  217  A    between atoms: _548  and  _550
REMARK  218  A    between atoms: _550  and  _551
REMARK  219  A    between atoms: _554  and  _556
REMARK  220  A    between atoms: _556  and  _557
REMARK  221  A    between atoms: _556  and  _559
REMARK  222  A    between atoms: _559  and  _560
REMARK  223  A    between atoms: _565  and  _566
REMARK  224  A    between atoms: _568  and  _570
REMARK  225  A    between atoms: _570  and  _571
REMARK  226  A    between atoms: _570  and  _573
REMARK  227  A    between atoms: _573  and  _574
REMARK  228  A    between atoms: _579  and  _580
REMARK  229  A    between atoms: _582  and  _584
REMARK  230  A    between atoms: _584  and  _585
REMARK  231  A    between atoms: _584  and  _587
REMARK  232  A    between atoms: _587  and  _588
REMARK  233  A    between atoms: _591  and  _593
REMARK  234  A    between atoms: _593  and  _594
REMARK  235  A    between atoms: _593  and  _596
REMARK  236  A    between atoms: _596  and  _597
REMARK  237  A    between atoms: _607  and  _609
REMARK  238  A    between atoms: _609  and  _610
REMARK  239  A    between atoms: _613  and  _615
REMARK  240  A    between atoms: _615  and  _616
REMARK  241  A    between atoms: _619  and  _621
REMARK  242  A    between atoms: _621  and  _622
REMARK  243  A    between atoms: _621  and  _624
REMARK  244  A    between atoms: _624  and  _625
REMARK  245  A    between atoms: _625  and  _626
REMARK  246  A    between atoms: _631  and  _633
REMARK  247  A    between atoms: _633  and  _634
REMARK  248  A    between atoms: _633  and  _636
REMARK  249  A    between atoms: _636  and  _637
REMARK  250  A    between atoms: _640  and  _642
REMARK  251  A    between atoms: _642  and  _643
REMARK  252  A    between atoms: _642  and  _645
REMARK  253  A    between atoms: _645  and  _646
REMARK  254  A    between atoms: _649  and  _651
REMARK  255  A    between atoms: _651  and  _652
REMARK  256  A    between atoms: _651  and  _654
REMARK  257  A    between atoms: _654  and  _655
REMARK  258  A    between atoms: _655  and  _656
REMARK  259  A    between atoms: _661  and  _663
REMARK  260  A    between atoms: _663  and  _664
REMARK  261  A    between atoms: _663  and  _666
REMARK  262  A    between atoms: _666  and  _667
REMARK  263  A    between atoms: _667  and  _668
REMARK  264  A    between atoms: _668  and  _669
REMARK  265  A    between atoms: _678  and  _680
REMARK  266  A    between atoms: _680  and  _681
REMARK  267  A    between atoms: _680  and  _683
REMARK  268  A    between atoms: _683  and  _684
REMARK  269  A    between atoms: _684  and  _685
REMARK  270  A    between atoms: _685  and  _686
REMARK  271  A    between atoms: _686  and  _687
REMARK  272  A    between atoms: _691  and  _693
REMARK  273  A    between atoms: _693  and  _694
REMARK  274  A    between atoms: _693  and  _696
REMARK  275  A    between atoms: _696  and  _697
REMARK  276  A    between atoms: _707  and  _709
REMARK  277  A    between atoms: _709  and  _710
REMARK  278  A    between atoms: _713  and  _715
REMARK  279  A    between atoms: _715  and  _716
REMARK  280  A    between atoms: _719  and  _721
REMARK  281  A    between atoms: _721  and  _722
REMARK  282  A    between atoms: _721  and  _724
REMARK  283  A    between atoms: _724  and  _725
REMARK  284  A    between atoms: _725  and  _726
REMARK  285  A    between atoms: _726  and  _727
REMARK  286  A    between atoms: _736  and  _738
REMARK  287  A    between atoms: _738  and  _739
REMARK  288  A    between atoms: _738  and  _741
REMARK  289  A    between atoms: _744  and  _746
REMARK  290  A    between atoms: _746  and  _747
REMARK  291  A    between atoms: _750  and  _752
REMARK  292  A    between atoms: _752  and  _753
REMARK  293  A    between atoms: _752  and  _755
REMARK  294  A    between atoms: _755  and  _756
REMARK  295  A    between atoms: _756  and  _757
REMARK  296  A    between atoms: _760  and  _762
REMARK  297  A    between atoms: _762  and  _763
REMARK  298  A    between atoms: _762  and  _765
REMARK  299  A    between atoms: _765  and  _766
REMARK  300  A    between atoms: _766  and  _767
REMARK  301  A    between atoms: _772  and  _774
REMARK  302  A    between atoms: _774  and  _775
REMARK  303  A    between atoms: _774  and  _777
REMARK  304  A    between atoms: _777  and  _778
REMARK  305  A    between atoms: _781  and  _783
REMARK  306  A    between atoms: _783  and  _784
REMARK  307  A    between atoms: _783  and  _786
REMARK  308  A    between atoms: _786  and  _787
REMARK  309  A    between atoms: _787  and  _788
REMARK  310  A    between atoms: _788  and  _789
REMARK  311  A    between atoms: _798  and  _800
REMARK  312  A    between atoms: _800  and  _801
REMARK  313  A    between atoms: _800  and  _803
REMARK  314  A    between atoms: _803  and  _804
REMARK  315  A    between atoms: _807  and  _809
REMARK  316  A    between atoms: _809  and  _810
REMARK  317  A    between atoms: _809  and  _812
REMARK  318  A    between atoms: _812  and  _813
REMARK  319  A    between atoms: _818  and  _819
REMARK  320  A    between atoms: _821  and  _823
REMARK  321  A    between atoms: _823  and  _824
REMARK  322  A    between atoms: _823  and  _826
REMARK  323  A    between atoms: _826  and  _827
REMARK  324  A    between atoms: _830  and  _832
REMARK  325  A    between atoms: _832  and  _833
REMARK  326  A    between atoms: _832  and  _835
REMARK  327  A    between atoms: _835  and  _836
REMARK  328  A    between atoms: _839  and  _841
REMARK  329  A    between atoms: _841  and  _842
REMARK  330  A    between atoms: _841  and  _844
REMARK  331  A    between atoms: _846  and  _848
REMARK  332  A    between atoms: _848  and  _849
REMARK  333  A    between atoms: _848  and  _851
REMARK  334  A    between atoms: _854  and  _856
REMARK  335  A    between atoms: _856  and  _857
REMARK  336  A    between atoms: _856  and  _859
REMARK  337  A    between atoms: _859  and  _860
REMARK  338  A    between atoms: _860  and  _861
REMARK  339  A    between atoms: _864  and  _866
REMARK  340  A    between atoms: _866  and  _867
REMARK  341  A    between atoms: _866  and  _869
REMARK  342  A    between atoms: _869  and  _870
REMARK  343  A    between atoms: _880  and  _882
REMARK  344  A    between atoms: _882  and  _883
REMARK  345  A    between atoms: _882  and  _885
REMARK  346  A    between atoms: _885  and  _886
REMARK  347  A    between atoms: _889  and  _891
REMARK  348  A    between atoms: _891  and  _892
REMARK  349  A    between atoms: _891  and  _894
REMARK  350  A    between atoms: _894  and  _895
REMARK  351  A    between atoms: _900  and  _901
REMARK                            x       y       z     vdW  Elec       q    Type
REMARK                         _______ _______ _______ _____ _____    ______ ____
ROOT
ATOM      1  C   THR A   1      -0.669   5.489  37.927  0.00  0.00    +0.241 C 
ATOM      2  O   THR A   1      -1.851   5.410  37.585  0.00  0.00    -0.274 OA
ATOM      3  N   ASN A   2       0.287   5.970  37.133  0.00  0.00    -0.298 N 
ATOM      4  H   ASN A   2       1.260   6.033  37.494  0.00  0.00    +0.150 HD
ENDROOT
BRANCH   1   5
ATOM      5  CA  THR A   1      -0.225   5.018  39.311  0.00  0.00    +0.172 C 
BRANCH   5   6
ATOM      6  N   THR A   1       0.977   4.203  39.210  0.00  0.00    -0.236 NA
ATOM      7  H   THR A   1       1.855   4.525  39.665  0.00  0.00    +0.142 HD
ENDBRANCH   5   6
BRANCH   5   8
ATOM      8  CB  THR A   1      -0.006   6.236  40.230  0.00  0.00    +0.135 C 
ATOM      9  CG2 THR A   1      -1.239   7.131  40.236  0.00  0.00    +0.034 C 
BRANCH   8  10
ATOM     10  OG1 THR A   1       0.256   5.785  41.565  0.00  0.00    -0.383 OA
ATOM     11  HG1 THR A   1      -0.516   5.259  41.892  0.00  0.00    +0.210 HD
ENDBRANCH   8  10
ENDBRANCH   5   8
ENDBRANCH   1   5
BRANCH   3  12
ATOM     12  CA  ASN A   2       0.005   6.412  35.769  0.00  0.00    +0.146 C 
BRANCH  12  13
ATOM     13  C   ASN A   2      -0.561   5.298  34.890  0.00  0.00    +0.227 C 
ATOM     14  O   ASN A   2      -1.391   5.552  34.015  0.00  0.00    -0.286 OA
ENDBRANCH  12  13
BRANCH  12  15
ATOM     15  CB  ASN A   2       1.257   7.002  35.118  0.00  0.00    +0.112 C 
BRANCH  15  16
ATOM     16  CG  ASN A   2       1.700   8.297  35.766  0.00  0.00    +0.222 C 
ATOM     17  OD1 ASN A   2       0.926   8.961  36.457  0.00  0.00    -0.275 OA
ATOM     18  ND2 ASN A   2       2.954   8.668  35.540  0.00  0.00    -0.329 N 
ATOM     19 HD21 ASN A   2       3.318   9.550  35.953  0.00  0.00    +0.145 HD
ATOM     20 HD22 ASN A   2       3.573   8.076  34.950  0.00  0.00    +0.145 HD
ENDBRANCH  15  16
ENDBRANCH  12  15
ENDBRANCH   3  12
TORSDOF 8
REMARK  Name = ../refined-set-2016/4o2c/4o2c_pocket.pdb
REMARK  351 active torsions:
REMARK  status: ('A' for Active; 'I' for Inactive)
REMARK    1  A    between atoms: _1  and  _3
REMARK    2  A    between atoms: _3  and  _4
REMARK    3  A    between atoms: _3  and  _6
REMARK    4  A    between atoms: _6  and  _7
REMARK    5  A    between atoms: _7  and  _8
REMARK    6  A    between atoms: _10  and  _12
REMARK    7  A    between atoms: _12  and  _13
REMARK    8  A    between atoms: _12  and  _15
REMARK    9  A    between atoms: _15  and  _16
REMARK   10  A    between atoms: _16  and  _17
REMARK   11  A    between atoms: _17  and  _18
REMARK   12  A    between atoms: _27  and  _29
REMARK   13  A    between atoms: _29  and  _30
REMARK   14  A    between atoms: _29  and  _32
REMARK   15  A    between atoms: _32  and  _33
REMARK   16  A    between atoms: _38  and  _39
REMARK   17  A    between atoms: _41  and  _43
REMARK   18  A    between atoms: _43  and  _44
REMARK   19  A    between atoms: _43  and  _46
REMARK   20  A    between atoms: _46  and  _47
REMARK   21  A    between atoms: _53  and  _55
REMARK   22  A    between atoms: _55  and  _56
REMARK   23  A    between atoms: _55  and  _58
REMARK   24  A    between atoms: _58  and  _59
REMARK   25  A    between atoms: _64  and  _65
REMARK   26  A    between atoms: _67  and  _69
REMARK   27  A    between atoms: _69  and  _70
REMARK   28  A    between atoms: _69  and  _72
REMARK   29  A    between atoms: _72  and  _73
REMARK   30  A    between atoms: _79  and  _81
REMARK   31  A    between atoms: _81  and  _82
REMARK   32  A    between atoms: _81  and  _84
REMARK   33  A    between atoms: _84  and  _85
REMARK   34  A    between atoms: _88  and  _90
REMARK   35  A    between atoms: _90  and  _91
REMARK   36  A    between atoms: _90  and  _93
REMARK   37  A    between atoms: _93  and  _94
REMARK   38  A    between atoms: _96  and  _98
REMARK   39  A    between atoms: _98  and  _99
REMARK   40  A    between atoms: _98  and  _101
REMARK   41  A    between atoms: _104  and  _106
REMARK   42  A    between atoms: _106  and  _107
REMARK   43  A    between atoms: _109  and  _111
REMARK   44  A    between atoms: _111  and  _112
REMARK   45  A    between atoms: _111  and  _114
REMARK   46  A    between atoms: _114  and  _115
REMARK   47  A    between atoms: _121  and  _123
REMARK   48  A    between atoms: _123  and  _124
REMARK   49  A    between atoms: _123  and  _126
REMARK   50  A    between atoms: _129  and  _131
REMARK   51  A    between atoms: _131  and  _132
REMARK   52  A    between atoms: _131  and  _134
REMARK   53  A    between atoms: _134  and  _135
REMARK   54  A    between atoms: _135  and  _136
REMARK   55  A    between atoms: _136  and  _137
REMARK   56  A    between atoms: _146  and  _148
REMARK   57  A    between atoms: _148  and  _149
REMARK   58  A    between atoms: _148  and  _151
REMARK   59  A    between atoms: _151  and  _152
REMARK   60  A    between atoms: _158  and  _160
REMARK   61  A    between atoms: _160  and  _161
REMARK   62  A    between atoms: _160  and  _163
REMARK   63  A    between atoms: _163  and  _164
REMARK   64  A    between atoms: _164  and  _165
REMARK   65  A    between atoms: _168  and  _170
REMARK   66  A    between atoms: _170  and  _171
REMARK   67  A    between atoms: _170  and  _173
REMARK   68  A    between atoms: _173  and  _174
REMARK   69  A    between atoms: _174  and  _175
REMARK   70  A    between atoms: _178  and  _180
REMARK   71  A    between atoms: _180  and  _181
REMARK   72  A    between atoms: _180  and  _183
REMARK   73  A    between atoms: _183  and  _184
REMARK   74  A    between atoms: _187  and  _189
REMARK   75  A    between atoms: _189  and  _190
REMARK   76  A    between atoms: _189  and  _192
REMARK   77  A    between atoms: _192  and  _193
REMARK   78  A    between atoms: _193  and  _194
REMARK   79  A    between atoms: _197  and  _199
REMARK   80  A    between atoms: _199  and  _200
REMARK   81  A    between atoms: _199  and  _202
REMARK   82  A    between atoms: _202  and  _203
REMARK   83  A    between atoms: _203  and  _204
REMARK   84  A    between atoms: _207  and  _209
REMARK   85  A    between atoms: _209  and  _210
REMARK   86  A    between atoms: _209  and  _212
REMARK   87  A    between atoms: _212  and  _213
REMARK   88  A    between atoms: _218  and  _219
REMARK   89  A    between atoms: _221  and  _223
REMARK   90  A    between atoms: _223  and  _224
REMARK   91  A    between atoms: _223  and  _226
REMARK   92  A    between atoms: _226  and  _227
REMARK   93  A    between atoms: _237  and  _239
REMARK   94  A    between atoms: _239  and  _240
REMARK   95  A    between atoms: _239  and  _242
REMARK   96  A    between atoms: _242  and  _243
REMARK   97  A    between atoms: _246  and  _248
REMARK   98  A    between atoms: _248  and  _249
REMARK   99  A    between atoms: _248  and  _251
REMARK  100  A    between atoms: _251  and  _252
REMARK  101  A    between atoms: _252  and  _253
REMARK  102  A    between atoms: _253  and  _254
REMARK  103  A    between atoms: _263  and  _265
REMARK  104  A    between atoms: _265  and  _266
REMARK  105  A    between atoms: _265  and  _268
REMARK  106  A    between atoms: _268  and  _269
REMARK  107  A    between atoms: _274  and  _276
REMARK  108  A    between atoms: _276  and  _277
REMARK  109  A    between atoms: _276  and  _279
REMARK  110  A    between atoms: _279  and  _280
REMARK  111  A    between atoms: _283  and  _285
REMARK  112  A    between atoms: _285  and  _286
REMARK  113  A    between atoms: _285  and  _288
REMARK  114  A    between atoms: _288  and  _289
REMARK  115  A    between atoms: _289  and  _290
REMARK  116  A    between atoms: _295  and  _297
REMARK  117  A    between atoms: _297  and  _298
REMARK  118  A    between atoms: _297  and  _300
REMARK  119  A    between atoms: _300  and  _301
REMARK  120  A    between atoms: _304  and  _306
REMARK  121  A    between atoms: _306  and  _307
REMARK  122  A    between atoms: _306  and  _309
REMARK  123  A    between atoms: _311  and  _313
REMARK  124  A    between atoms: _313  and  _314
REMARK  125  A    between atoms: _313  and  _316
REMARK  126  A    between atoms: _316  and  _317
REMARK  127  A    between atoms: _320  and  _322
REMARK  128  A    between atoms: _322  and  _323
REMARK  129  A    between atoms: _322  and  _325
REMARK  130  A    between atoms: _325  and  _326
REMARK  131  A    between atoms: _331  and  _333
REMARK  132  A    between atoms: _333  and  _334
REMARK  133  A    between atoms: _333  and  _336
REMARK  134  A    between atoms: _336  and  _337
REMARK  135  A    between atoms: _337  and  _338
REMARK  136  A    between atoms: _343  and  _345
REMARK  137  A    between atoms: _345  and  _346
REMARK  138  A    between atoms: _345  and  _348
REMARK  139  A    between atoms: _348  and  _349
REMARK  140  A    between atoms: _352  and  _354
REMARK  141  A    between atoms: _354  and  _355
REMARK  142  A    between atoms: _354  and  _357
REMARK  143  A    between atoms: _357  and  _358
REMARK  144  A    between atoms: _361  and  _363
REMARK  145  A    between atoms: _363  and  _364
REMARK  146  A    between atoms: _363  and  _366
REMARK  147  A    between atoms: _366  and  _367
REMARK  148  A    between atoms: _367  and  _368
REMARK  149  A    between atoms: _368  and  _369
REMARK  150  A    between atoms: _378  and  _380
REMARK  151  A    between atoms: _380  and  _381
REMARK  152  A    between atoms: _380  and  _383
REMARK  153  A    between atoms: _383  and  _384
REMARK  154  A    between atoms: _384  and  _385
REMARK  155  A    between atoms: _388  and  _390
REMARK  156  A    between atoms: _390  and  _391
REMARK  157  A    between atoms: _390  and  _393
REMARK  158  A    between atoms: _393  and  _394
REMARK  159  A    between atoms: _396  and  _398
REMARK  160  A    between atoms: _398  and  _399
REMARK  161  A    between atoms: _398  and  _401
REMARK  162  A    between atoms: _401  and  _402
REMARK  163  A    between atoms: _405  and  _407
REMARK  164  A    between atoms: _407  and  _408
REMARK  165  A    between atoms: _407  and  _410
REMARK  166  A    between atoms: _410  and  _411
REMARK  167  A    between atoms: _411  and  _412
REMARK  168  A    between atoms: _412  and  _413
REMARK  169  A    between atoms: _422  and  _424
REMARK  170  A    between atoms: _424  and  _425
REMARK  171  A    between atoms: _424  and  _427
REMARK  172  A    between atoms: _427  and  _428
REMARK  173  A    between atoms: _433  and  _435
REMARK  174  A    between atoms: _435  and  _436
REMARK  175  A    between atoms: _435  and  _438
REMARK  176  A    between atoms: _438  and  _439
REMARK  177  A    between atoms: _442  and  _444
REMARK  178  A    between atoms: _444  and  _445
REMARK  179  A    between atoms: _444  and  _447
REMARK  180  A    between atoms: _447  and  _448
REMARK  181  A    between atoms: _453  and  _454
REMARK  182  A    between atoms: _456  and  _458
REMARK  183  A    between atoms: _458  and  _459
REMARK  184  A    between atoms: _458  and  _461
REMARK  185  A    between atoms: _461  and  _462
REMARK  186  A    between atoms: _465  and  _467
REMARK  187  A    between atoms: _467  and  _468
REMARK  188  A    between atoms: _467  and  _470
REMARK  189  A    between atoms: _470  and  _471
REMARK  190  A    between atoms: _471  and  _472
REMARK  191  A    between atoms: _477  and  _479
REMARK  192  A    between atoms: _479  and  _480
REMARK  193  A    between atoms: _479  and  _482
REMARK  194  A    between atoms: _482  and  _483
REMARK  195  A    between atoms: _483  and  _484
REMARK  196  A    between atoms: _484  and  _485
REMARK  197  A    between atoms: _494  and  _496
REMARK  198  A    between atoms: _496  and  _497
REMARK  199  A    between atoms: _496  and  _499
REMARK  200  A    between atoms: _499  and  _500
REMARK  201  A    between atoms: _505  and  _506
REMARK  202  A    between atoms: _508  and  _510
REMARK  203  A    between atoms: _510  and  _511
REMARK  204  A    between atoms: _513  and  _515
REMARK  205  A    between atoms: _515  and  _516
REMARK  206  A    between atoms: _515  and  _518
REMARK  207  A    between atoms: _518  and  _519
REMARK  208  A    between atoms: _524  and  _526
REMARK  209  A    between atoms: _526  and  _527
REMARK  210  A    between atoms: _526  and  _529
REMARK  211  A    between atoms: _529  and  _530
REMARK  212  A    between atoms: _530  and  _531
REMARK  213  A    between atoms: _536  and  _538
REMARK  214  A    between atoms: _538  and  _539
REMARK  215  A    between atoms: _538  and  _541
REMARK  216  A    between atoms: _541  and  _542
REMARK  217  A    between atoms: _548  and  _550
REMARK  218  A    between atoms: _550  and  _551
REMARK  219  A    between atoms: _554  and  _556
REMARK  220  A    between atoms: _556  and  _557
REMARK  221  A    between atoms: _556  and  _559
REMARK  222  A    between atoms: _559  and  _560
REMARK  223  A    between atoms: _565  and  _566
REMARK  224  A    between atoms: _568  and  _570
REMARK  225  A    between atoms: _570  and  _571
REMARK  226  A    between atoms: _570  and  _573
REMARK  227  A    between atoms: _573  and  _574
REMARK  228  A    between atoms: _579  and  _580
REMARK  229  A    between atoms: _582  and  _584
REMARK  230  A    between atoms: _584  and  _585
REMARK  231  A    between atoms: _584  and  _587
REMARK  232  A    between atoms: _587  and  _588
REMARK  233  A    between atoms: _591  and  _593
REMARK  234  A    between atoms: _593  and  _594
REMARK  235  A    between atoms: _593  and  _596
REMARK  236  A    between atoms: _596  and  _597
REMARK  237  A    between atoms: _607  and  _609
REMARK  238  A    between atoms: _609  and  _610
REMARK  239  A    between atoms: _613  and  _615
REMARK  240  A    between atoms: _615  and  _616
REMARK  241  A    between atoms: _619  and  _621
REMARK  242  A    between atoms: _621  and  _622
REMARK  243  A    between atoms: _621  and  _624
REMARK  244  A    between atoms: _624  and  _625
REMARK  245  A    between atoms: _625  and  _626
REMARK  246  A    between atoms: _631  and  _633
REMARK  247  A    between atoms: _633  and  _634
REMARK  248  A    between atoms: _633  and  _636
REMARK  249  A    between atoms: _636  and  _637
REMARK  250  A    between atoms: _640  and  _642
REMARK  251  A    between atoms: _642  and  _643
REMARK  252  A    between atoms: _642  and  _645
REMARK  253  A    between atoms: _645  and  _646
REMARK  254  A    between atoms: _649  and  _651
REMARK  255  A    between atoms: _651  and  _652
REMARK  256  A    between atoms: _651  and  _654
REMARK  257  A    between atoms: _654  and  _655
REMARK  258  A    between atoms: _655  and  _656
REMARK  259  A    between atoms: _661  and  _663
REMARK  260  A    between atoms: _663  and  _664
REMARK  261  A    between atoms: _663  and  _666
REMARK  262  A    between atoms: _666  and  _667
REMARK  263  A    between atoms: _667  and  _668
REMARK  264  A    between atoms: _668  and  _669
REMARK  265  A    between atoms: _678  and  _680
REMARK  266  A    between atoms: _680  and  _681
REMARK  267  A    between atoms: _680  and  _683
REMARK  268  A    between atoms: _683  and  _684
REMARK  269  A    between atoms: _684  and  _685
REMARK  270  A    between atoms: _685  and  _686
REMARK  271  A    between atoms: _686  and  _687
REMARK  272  A    between atoms: _691  and  _693
REMARK  273  A    between atoms: _693  and  _694
REMARK  274  A    between atoms: _693  and  _696
REMARK  275  A    between atoms: _696  and  _697
REMARK  276  A    between atoms: _707  and  _709
REMARK  277  A    between atoms: _709  and  _710
REMARK  278  A    between atoms: _713  and  _715
REMARK  279  A    between atoms: _715  and  _716
REMARK  280  A    between atoms: _719  and  _721
REMARK  281  A    between atoms: _721  and  _722
REMARK  282  A    between atoms: _721  and  _724
REMARK  283  A    between atoms: _724  and  _725
REMARK  284  A    between atoms: _725  and  _726
REMARK  285  A    between atoms: _726  and  _727
REMARK  286  A    between atoms: _736  and  _738
REMARK  287  A    between atoms: _738  and  _739
REMARK  288  A    between atoms: _738  and  _741
REMARK  289  A    between atoms: _744  and  _746
REMARK  290  A    between atoms: _746  and  _747
REMARK  291  A    between atoms: _750  and  _752
REMARK  292  A    between atoms: _752  and  _753
REMARK  293  A    between atoms: _752  and  _755
REMARK  294  A    between atoms: _755  and  _756
REMARK  295  A    between atoms: _756  and  _757
REMARK  296  A    between atoms: _760  and  _762
REMARK  297  A    between atoms: _762  and  _763
REMARK  298  A    between atoms: _762  and  _765
REMARK  299  A    between atoms: _765  and  _766
REMARK  300  A    between atoms: _766  and  _767
REMARK  301  A    between atoms: _772  and  _774
REMARK  302  A    between atoms: _774  and  _775
REMARK  303  A    between atoms: _774  and  _777
REMARK  304  A    between atoms: _777  and  _778
REMARK  305  A    between atoms: _781  and  _783
REMARK  306  A    between atoms: _783  and  _784
REMARK  307  A    between atoms: _783  and  _786
REMARK  308  A    between atoms: _786  and  _787
REMARK  309  A    between atoms: _787  and  _788
REMARK  310  A    between atoms: _788  and  _789
REMARK  311  A    between atoms: _798  and  _800
REMARK  312  A    between atoms: _800  and  _801
REMARK  313  A    between atoms: _800  and  _803
REMARK  314  A    between atoms: _803  and  _804
REMARK  315  A    between atoms: _807  and  _809
REMARK  316  A    between atoms: _809  and  _810
REMARK  317  A    between atoms: _809  and  _812
REMARK  318  A    between atoms: _812  and  _813
REMARK  319  A    between atoms: _818  and  _819
REMARK  320  A    between atoms: _821  and  _823
REMARK  321  A    between atoms: _823  and  _824
REMARK  322  A    between atoms: _823  and  _826
REMARK  323  A    between atoms: _826  and  _827
REMARK  324  A    between atoms: _830  and  _832
REMARK  325  A    between atoms: _832  and  _833
REMARK  326  A    between atoms: _832  and  _835
REMARK  327  A    between atoms: _835  and  _836
REMARK  328  A    between atoms: _839  and  _841
REMARK  329  A    between atoms: _841  and  _842
REMARK  330  A    between atoms: _841  and  _844
REMARK  331  A    between atoms: _846  and  _848
REMARK  332  A    between atoms: _848  and  _849
REMARK  333  A    between atoms: _848  and  _851
REMARK  334  A    between atoms: _854  and  _856
REMARK  335  A    between atoms: _856  and  _857
REMARK  336  A    between atoms: _856  and  _859
REMARK  337  A    between atoms: _859  and  _860
REMARK  338  A    between atoms: _860  and  _861
REMARK  339  A    between atoms: _864  and  _866
REMARK  340  A    between atoms: _866  and  _867
REMARK  341  A    between atoms: _866  and  _869
REMARK  342  A    between atoms: _869  and  _870
REMARK  343  A    between atoms: _880  and  _882
REMARK  344  A    between atoms: _882  and  _883
REMARK  345  A    between atoms: _882  and  _885
REMARK  346  A    between atoms: _885  and  _886
REMARK  347  A    between atoms: _889  and  _891
REMARK  348  A    between atoms: _891  and  _892
REMARK  349  A    between atoms: _891  and  _894
REMARK  350  A    between atoms: _894  and  _895
REMARK  351  A    between atoms: _900  and  _901
REMARK                            x       y       z     vdW  Elec       q    Type
REMARK                         _______ _______ _______ _____ _____    ______ ____
ROOT
ATOM      1  C   GLU A   5      -9.473   6.143  32.120  0.00  0.00    +0.241 C 
ATOM      2  N   SER A   6      -8.417   6.829  31.696  0.00  0.00    -0.295 N 
ATOM      3  H   SER A   6      -7.500   6.691  32.168  0.00  0.00    +0.150 HD
ATOM      4  O   GLU A   5     -10.590   6.250  31.607  0.00  0.00    -0.273 OA
ENDROOT
BRANCH   2   5
ATOM      5  CA  SER A   6      -8.510   7.772  30.585  0.00  0.00    +0.178 C 
BRANCH   5   6
ATOM      6  C   SER A   6      -8.992   7.099  29.303  0.00  0.00    +0.243 C 
ATOM      7  N   LEU A   7      -8.430   5.934  29.000  0.00  0.00    -0.297 N 
ATOM      8  H   LEU A   7      -7.700   5.541  29.628  0.00  0.00    +0.150 HD
ATOM      9  O   SER A   6      -9.853   7.630  28.600  0.00  0.00    -0.273 OA
BRANCH   7  10
ATOM     10  CA  LEU A   7      -8.817   5.195  27.803  0.00  0.00    +0.149 C 
BRANCH  10  11
ATOM     11  C   LEU A   7     -10.295   4.815  27.830  0.00  0.00    +0.241 C 
ATOM     12  N   ARG A   8     -10.792   4.411  28.997  0.00  0.00    -0.297 N 
ATOM     13  H   ARG A   8     -10.157   4.303  29.814  0.00  0.00    +0.150 HD
ATOM     14  O   LEU A   7     -10.971   4.885  26.806  0.00  0.00    -0.273 OA
BRANCH  12  15
ATOM     15  CA  ARG A   8     -12.218   4.116  29.150  0.00  0.00    +0.149 C 
BRANCH  15  16
ATOM     16  C   ARG A   8     -13.063   5.360  28.882  0.00  0.00    +0.241 C 
ATOM     17  N   ASN A   9     -12.622   6.493  29.420  0.00  0.00    -0.297 N 
ATOM     18  H   ASN A   9     -11.752   6.481  29.990  0.00  0.00    +0.150 HD
ATOM     19  O   ARG A   8     -14.093   5.296  28.207  0.00  0.00    -0.273 OA
BRANCH  17  20
ATOM     20  CA  ASN A   9     -13.330   7.751  29.228  0.00  0.00    +0.158 C 
BRANCH  20  21
ATOM     21  C   ASN A   9     -13.328   8.188  27.768  0.00  0.00    +0.241 C 
ATOM     22  O   ASN A   9     -14.354   8.617  27.238  0.00  0.00    -0.273 OA
ATOM     23  N   LEU A  10     -12.170   8.073  27.125  0.00  0.00    -0.298 N 
ATOM     24  H   LEU A  10     -11.349   7.687  27.634  0.00  0.00    +0.150 HD
BRANCH  23  25
ATOM     25  CA  LEU A  10     -12.011   8.469  25.730  0.00  0.00    +0.137 C 
BRANCH  25  26
ATOM     26  C   LEU A  10     -12.898   7.646  24.807  0.00  0.00    +0.227 C 
ATOM     27  O   LEU A  10     -13.489   8.177  23.868  0.00  0.00    -0.286 OA
ENDBRANCH  25  26
BRANCH  25  28
ATOM     28  CB  LEU A  10     -10.547   8.340  25.303  0.00  0.00    +0.028 C 
BRANCH  28  29
ATOM     29  CG  LEU A  10      -9.623   9.406  25.891  0.00  0.00    +0.002 C 
ATOM     30  CD2 LEU A  10      -8.161   8.970  25.826  0.00  0.00    +0.000 C 
ATOM     31  CD1 LEU A  10      -9.833  10.729  25.161  0.00  0.00    +0.000 C 
ENDBRANCH  28  29
ENDBRANCH  25  28
ENDBRANCH  23  25
ENDBRANCH  20  21
BRANCH  20  32
ATOM     32  CB  ASN A   9     -12.730   8.847  30.114  0.00  0.00    +0.114 C 
BRANCH  32  33
ATOM     33  CG  ASN A   9     -12.982   8.604  31.591  0.00  0.00    +0.222 C 
ATOM     34  ND2 ASN A   9     -12.253   9.319  32.443  0.00  0.00    -0.329 N 
ATOM     35 HD21 ASN A   9     -12.385   9.200  33.468  0.00  0.00    +0.145 HD
ATOM     36 HD22 ASN A   9     -11.551   9.997  32.085  0.00  0.00    +0.145 HD
ATOM     37  OD1 ASN A   9     -13.826   7.788  31.962  0.00  0.00    -0.275 OA
ENDBRANCH  32  33
ENDBRANCH  20  32
ENDBRANCH  17  20
ENDBRANCH  15  16
BRANCH  15  38
ATOM     38  CB  ARG A   8     -12.525   3.569  30.549  0.00  0.00    +0.033 C 
BRANCH  38  39
ATOM     39  CG  ARG A   8     -12.005   2.160  30.802  0.00  0.00    +0.045 C 
BRANCH  39  40
ATOM     40  CD  ARG A   8     -12.566   1.571  32.096  0.00  0.00    +0.174 C 
BRANCH  40  41
ATOM     41  NE  ARG A   8     -12.106   2.279  33.289  0.00  0.00    -0.265 N 
ATOM     42  CZ  ARG A   8     -10.993   1.981  33.954  0.00  0.00    +0.342 C 
ATOM     43  NH2 ARG A   8     -10.656   2.677  35.032  0.00  0.00    -0.292 N 
ATOM     44 HH21 ARG A   8      -9.786   2.443  35.551  0.00  0.00    +0.255 HD
ATOM     45 HH22 ARG A   8     -11.262   3.457  35.358  0.00  0.00    +0.255 HD
ATOM     46  NH1 ARG A   8     -10.213   0.991  33.541  0.00  0.00    -0.292 N 
ATOM     47 HH11 ARG A   8      -9.344   0.761  34.064  0.00  0.00    +0.255 HD
ATOM     48 HH12 ARG A   8     -10.471   0.445  32.694  0.00  0.00    +0.255 HD
ATOM     49  HE  ARG A   8     -12.686   3.067  33.641  0.00  0.00    +0.259 HD
ENDBRANCH  40  41
ENDBRANCH  39  40
ENDBRANCH  38  39
ENDBRANCH  15  38
ENDBRANCH  12  15
ENDBRANCH  10  11
BRANCH  10  50
ATOM     50  CB  LEU A   7      -7.937   3.955  27.615  0.00  0.00    +0.029 C 
BRANCH  50  51
ATOM     51  CG  LEU A   7      -6.538   4.244  27.062  0.00  0.00    +0.002 C 
ATOM     52  CD2 LEU A   7      -5.627   3.035  27.196  0.00  0.00    +0.000 C 
ATOM     53  CD1 LEU A   7      -6.617   4.700  25.611  0.00  0.00    +0.000 C 
ENDBRANCH  50  51
ENDBRANCH  10  50
ENDBRANCH   7  10
ENDBRANCH   5   6
BRANCH   5  54
ATOM     54  CB  SER A   6      -7.162   8.447  30.339  0.00  0.00    +0.166 C 
BRANCH  54  55
ATOM     55  OG  SER A   6      -6.777   9.224  31.459  0.00  0.00    -0.380 OA
ATOM     56  H   SER A   6      -5.903   9.651  31.278  0.00  0.00    +0.211 HD
ENDBRANCH  54  55
ENDBRANCH   5  54
ENDBRANCH   2   5
BRANCH   1  57
ATOM     57  CA  GLU A   5      -9.228   5.181  33.285  0.00  0.00    +0.149 C 
BRANCH  57  59
ATOM     58  C   ARG A   4      -7.945   3.581  31.989  0.00  0.00    +0.241 C 
ATOM     59  N   GLU A   5      -8.028   4.399  33.031  0.00  0.00    -0.297 N 
ATOM     60  H   GLU A   5      -7.219   4.483  33.679  0.00  0.00    +0.150 HD
ATOM     61  O   ARG A   4      -8.895   3.351  31.242  0.00  0.00    -0.273 OA
BRANCH  58  62
ATOM     62  CA  ARG A   4      -6.584   2.939  31.743  0.00  0.00    +0.149 C 
BRANCH  62  64
ATOM     63  C   ASP A   3      -5.327   4.941  31.245  0.00  0.00    +0.241 C 
ATOM     64  N   ARG A   4      -5.512   3.885  32.028  0.00  0.00    -0.297 N 
ATOM     65  H   ARG A   4      -4.890   3.732  32.847  0.00  0.00    +0.150 HD
ATOM     66  O   ASP A   3      -6.006   5.142  30.241  0.00  0.00    -0.273 OA
BRANCH  63  67
ATOM     67  CA  ASP A   3      -4.213   5.906  31.642  0.00  0.00    +0.160 C 
BRANCH  67  70
ATOM     68  C   THR A   2      -5.068   6.488  33.844  0.00  0.00    +0.243 C 
ATOM     69  O   THR A   2      -6.126   6.896  33.368  0.00  0.00    -0.273 OA
ATOM     70  N   ASP A   3      -4.075   6.021  33.093  0.00  0.00    -0.296 N 
ATOM     71  H   ASP A   3      -3.184   5.732  33.546  0.00  0.00    +0.150 HD
BRANCH  68  72
ATOM     72  CA  THR A   2      -4.840   6.501  35.355  0.00  0.00    +0.176 C 
BRANCH  72  74
ATOM     73  C   GLN A   1      -4.745   4.100  35.726  0.00  0.00    +0.238 C 
ATOM     74  N   THR A   2      -4.159   5.290  35.809  0.00  0.00    -0.295 N 
ATOM     75  H   THR A   2      -3.199   5.361  36.204  0.00  0.00    +0.150 HD
ATOM     76  O   GLN A   1      -5.873   3.943  35.261  0.00  0.00    -0.274 OA
BRANCH  73  77
ATOM     77  CA  GLN A   1      -3.947   2.905  36.241  0.00  0.00    +0.145 C 
BRANCH  77  78
ATOM     78  N   GLN A   1      -2.540   2.982  35.868  0.00  0.00    -0.238 NA
ATOM     79  H   GLN A   1      -1.829   3.151  36.608  0.00  0.00    +0.142 HD
ENDBRANCH  77  78
BRANCH  77  80
ATOM     80  CB  GLN A   1      -4.091   2.783  37.757  0.00  0.00    +0.036 C 
BRANCH  80  81
ATOM     81  CG  GLN A   1      -3.387   1.569  38.340  0.00  0.00    +0.087 C 
BRANCH  81  82
ATOM     82  CD  GLN A   1      -3.890   0.263  37.753  0.00  0.00    +0.219 C 
ATOM     83  NE2 GLN A   1      -2.976  -0.672  37.518  0.00  0.00    -0.329 N 
ATOM     84 HE21 GLN A   1      -1.975  -0.486  37.731  0.00  0.00    +0.145 HD
ATOM     85 HE22 GLN A   1      -3.261  -1.590  37.121  0.00  0.00    +0.145 HD
ATOM     86  OE1 GLN A   1      -5.087   0.093  37.518  0.00  0.00    -0.275 OA
ENDBRANCH  81  82
ENDBRANCH  80  81
ENDBRANCH  77  80
ENDBRANCH  73  77
ENDBRANCH  72  74
BRANCH  72  87
ATOM     87  CB  THR A   2      -4.073   7.776  35.756  0.00  0.00    +0.137 C 
ATOM     88  CG2 THR A   2      -4.865   9.019  35.363  0.00  0.00    +0.034 C 
BRANCH  87  89
ATOM     89  OG1 THR A   2      -3.863   7.782  37.173  0.00  0.00    -0.382 OA
ATOM     90  HG1 THR A   2      -3.370   8.602  37.429  0.00  0.00    +0.210 HD
ENDBRANCH  87  89
ENDBRANCH  72  87
ENDBRANCH  68  72
ENDBRANCH  67  70
BRANCH  67  91
ATOM     91  CB  ASP A   3      -2.896   5.470  30.997  0.00  0.00    +0.143 C 
BRANCH  91  92
ATOM     92  CG  ASP A   3      -2.082   6.641  30.481  0.00  0.00    +0.367 C 
ATOM     93  OD2 ASP A   3      -2.375   7.791  30.871  0.00  0.00    -0.246 OA
ATOM     94  OD1 ASP A   3      -1.153   6.412  29.680  0.00  0.00    -0.246 OA
ENDBRANCH  91  92
ENDBRANCH  67  91
ENDBRANCH  63  67
ENDBRANCH  62  64
BRANCH  62  95
ATOM     95  CB  ARG A   4      -6.407   1.660  32.559  0.00  0.00    +0.033 C 
BRANCH  95  96
ATOM     96  CG  ARG A   4      -5.176   0.883  32.138  0.00  0.00    +0.045 C 
BRANCH  96  97
ATOM     97  CD  ARG A   4      -4.881  -0.295  33.047  0.00  0.00    +0.174 C 
BRANCH  97  98
ATOM     98  NE  ARG A   4      -3.703  -1.017  32.576  0.00  0.00    -0.265 N 
ATOM     99  CZ  ARG A   4      -3.114  -2.006  33.238  0.00  0.00    +0.342 C 
ATOM    100  NH2 ARG A   4      -3.592  -2.399  34.412  0.00  0.00    -0.292 N 
ATOM    101 HH21 ARG A   4      -3.129  -3.174  34.929  0.00  0.00    +0.255 HD
ATOM    102 HH22 ARG A   4      -4.429  -1.932  34.815  0.00  0.00    +0.255 HD
ATOM    103  NH1 ARG A   4      -2.046  -2.599  32.725  0.00  0.00    -0.292 N 
ATOM    104 HH11 ARG A   4      -1.583  -3.374  33.242  0.00  0.00    +0.255 HD
ATOM    105 HH12 ARG A   4      -1.671  -2.290  31.806  0.00  0.00    +0.255 HD
ATOM    106  HE  ARG A   4      -3.298  -0.738  31.660  0.00  0.00    +0.259 HD
ENDBRANCH  97  98
ENDBRANCH  96  97
ENDBRANCH  95  96
ENDBRANCH  62  95
ENDBRANCH  58  62
ENDBRANCH  57  59
BRANCH  57 107
ATOM    107  CB  GLU A   5      -9.079   5.954  34.597  0.00  0.00    +0.041 C 
BRANCH 107 108
ATOM    108  CG  GLU A   5     -10.295   6.777  34.988  0.00  0.00    +0.116 C 
BRANCH 108 109
ATOM    109  CD  GLU A   5     -10.083   7.530  36.294  0.00  0.00    +0.365 C 
ATOM    110  OE2 GLU A   5      -9.021   7.336  36.921  0.00  0.00    -0.246 OA
ATOM    111  OE1 GLU A   5     -10.972   8.313  36.688  0.00  0.00    -0.246 OA
ENDBRANCH 108 109
ENDBRANCH 107 108
ENDBRANCH  57 107
ENDBRANCH   1  57
TORSDOF 46
REMARK  Name = ../refined-set-2016/4o2c/4o2c_pocket.pdb
REMARK  351 active torsions:
REMARK  status: ('A' for Active; 'I' for Inactive)
REMARK    1  A    between atoms: _1  and  _3
REMARK    2  A    between atoms: _3  and  _4
REMARK    3  A    between atoms: _3  and  _6
REMARK    4  A    between atoms: _6  and  _7
REMARK    5  A    between atoms: _7  and  _8
REMARK    6  A    between atoms: _10  and  _12
REMARK    7  A    between atoms: _12  and  _13
REMARK    8  A    between atoms: _12  and  _15
REMARK    9  A    between atoms: _15  and  _16
REMARK   10  A    between atoms: _16  and  _17
REMARK   11  A    between atoms: _17  and  _18
REMARK   12  A    between atoms: _27  and  _29
REMARK   13  A    between atoms: _29  and  _30
REMARK   14  A    between atoms: _29  and  _32
REMARK   15  A    between atoms: _32  and  _33
REMARK   16  A    between atoms: _38  and  _39
REMARK   17  A    between atoms: _41  and  _43
REMARK   18  A    between atoms: _43  and  _44
REMARK   19  A    between atoms: _43  and  _46
REMARK   20  A    between atoms: _46  and  _47
REMARK   21  A    between atoms: _53  and  _55
REMARK   22  A    between atoms: _55  and  _56
REMARK   23  A    between atoms: _55  and  _58
REMARK   24  A    between atoms: _58  and  _59
REMARK   25  A    between atoms: _64  and  _65
REMARK   26  A    between atoms: _67  and  _69
REMARK   27  A    between atoms: _69  and  _70
REMARK   28  A    between atoms: _69  and  _72
REMARK   29  A    between atoms: _72  and  _73
REMARK   30  A    between atoms: _79  and  _81
REMARK   31  A    between atoms: _81  and  _82
REMARK   32  A    between atoms: _81  and  _84
REMARK   33  A    between atoms: _84  and  _85
REMARK   34  A    between atoms: _88  and  _90
REMARK   35  A    between atoms: _90  and  _91
REMARK   36  A    between atoms: _90  and  _93
REMARK   37  A    between atoms: _93  and  _94
REMARK   38  A    between atoms: _96  and  _98
REMARK   39  A    between atoms: _98  and  _99
REMARK   40  A    between atoms: _98  and  _101
REMARK   41  A    between atoms: _104  and  _106
REMARK   42  A    between atoms: _106  and  _107
REMARK   43  A    between atoms: _109  and  _111
REMARK   44  A    between atoms: _111  and  _112
REMARK   45  A    between atoms: _111  and  _114
REMARK   46  A    between atoms: _114  and  _115
REMARK   47  A    between atoms: _121  and  _123
REMARK   48  A    between atoms: _123  and  _124
REMARK   49  A    between atoms: _123  and  _126
REMARK   50  A    between atoms: _129  and  _131
REMARK   51  A    between atoms: _131  and  _132
REMARK   52  A    between atoms: _131  and  _134
REMARK   53  A    between atoms: _134  and  _135
REMARK   54  A    between atoms: _135  and  _136
REMARK   55  A    between atoms: _136  and  _137
REMARK   56  A    between atoms: _146  and  _148
REMARK   57  A    between atoms: _148  and  _149
REMARK   58  A    between atoms: _148  and  _151
REMARK   59  A    between atoms: _151  and  _152
REMARK   60  A    between atoms: _158  and  _160
REMARK   61  A    between atoms: _160  and  _161
REMARK   62  A    between atoms: _160  and  _163
REMARK   63  A    between atoms: _163  and  _164
REMARK   64  A    between atoms: _164  and  _165
REMARK   65  A    between atoms: _168  and  _170
REMARK   66  A    between atoms: _170  and  _171
REMARK   67  A    between atoms: _170  and  _173
REMARK   68  A    between atoms: _173  and  _174
REMARK   69  A    between atoms: _174  and  _175
REMARK   70  A    between atoms: _178  and  _180
REMARK   71  A    between atoms: _180  and  _181
REMARK   72  A    between atoms: _180  and  _183
REMARK   73  A    between atoms: _183  and  _184
REMARK   74  A    between atoms: _187  and  _189
REMARK   75  A    between atoms: _189  and  _190
REMARK   76  A    between atoms: _189  and  _192
REMARK   77  A    between atoms: _192  and  _193
REMARK   78  A    between atoms: _193  and  _194
REMARK   79  A    between atoms: _197  and  _199
REMARK   80  A    between atoms: _199  and  _200
REMARK   81  A    between atoms: _199  and  _202
REMARK   82  A    between atoms: _202  and  _203
REMARK   83  A    between atoms: _203  and  _204
REMARK   84  A    between atoms: _207  and  _209
REMARK   85  A    between atoms: _209  and  _210
REMARK   86  A    between atoms: _209  and  _212
REMARK   87  A    between atoms: _212  and  _213
REMARK   88  A    between atoms: _218  and  _219
REMARK   89  A    between atoms: _221  and  _223
REMARK   90  A    between atoms: _223  and  _224
REMARK   91  A    between atoms: _223  and  _226
REMARK   92  A    between atoms: _226  and  _227
REMARK   93  A    between atoms: _237  and  _239
REMARK   94  A    between atoms: _239  and  _240
REMARK   95  A    between atoms: _239  and  _242
REMARK   96  A    between atoms: _242  and  _243
REMARK   97  A    between atoms: _246  and  _248
REMARK   98  A    between atoms: _248  and  _249
REMARK   99  A    between atoms: _248  and  _251
REMARK  100  A    between atoms: _251  and  _252
REMARK  101  A    between atoms: _252  and  _253
REMARK  102  A    between atoms: _253  and  _254
REMARK  103  A    between atoms: _263  and  _265
REMARK  104  A    between atoms: _265  and  _266
REMARK  105  A    between atoms: _265  and  _268
REMARK  106  A    between atoms: _268  and  _269
REMARK  107  A    between atoms: _274  and  _276
REMARK  108  A    between atoms: _276  and  _277
REMARK  109  A    between atoms: _276  and  _279
REMARK  110  A    between atoms: _279  and  _280
REMARK  111  A    between atoms: _283  and  _285
REMARK  112  A    between atoms: _285  and  _286
REMARK  113  A    between atoms: _285  and  _288
REMARK  114  A    between atoms: _288  and  _289
REMARK  115  A    between atoms: _289  and  _290
REMARK  116  A    between atoms: _295  and  _297
REMARK  117  A    between atoms: _297  and  _298
REMARK  118  A    between atoms: _297  and  _300
REMARK  119  A    between atoms: _300  and  _301
REMARK  120  A    between atoms: _304  and  _306
REMARK  121  A    between atoms: _306  and  _307
REMARK  122  A    between atoms: _306  and  _309
REMARK  123  A    between atoms: _311  and  _313
REMARK  124  A    between atoms: _313  and  _314
REMARK  125  A    between atoms: _313  and  _316
REMARK  126  A    between atoms: _316  and  _317
REMARK  127  A    between atoms: _320  and  _322
REMARK  128  A    between atoms: _322  and  _323
REMARK  129  A    between atoms: _322  and  _325
REMARK  130  A    between atoms: _325  and  _326
REMARK  131  A    between atoms: _331  and  _333
REMARK  132  A    between atoms: _333  and  _334
REMARK  133  A    between atoms: _333  and  _336
REMARK  134  A    between atoms: _336  and  _337
REMARK  135  A    between atoms: _337  and  _338
REMARK  136  A    between atoms: _343  and  _345
REMARK  137  A    between atoms: _345  and  _346
REMARK  138  A    between atoms: _345  and  _348
REMARK  139  A    between atoms: _348  and  _349
REMARK  140  A    between atoms: _352  and  _354
REMARK  141  A    between atoms: _354  and  _355
REMARK  142  A    between atoms: _354  and  _357
REMARK  143  A    between atoms: _357  and  _358
REMARK  144  A    between atoms: _361  and  _363
REMARK  145  A    between atoms: _363  and  _364
REMARK  146  A    between atoms: _363  and  _366
REMARK  147  A    between atoms: _366  and  _367
REMARK  148  A    between atoms: _367  and  _368
REMARK  149  A    between atoms: _368  and  _369
REMARK  150  A    between atoms: _378  and  _380
REMARK  151  A    between atoms: _380  and  _381
REMARK  152  A    between atoms: _380  and  _383
REMARK  153  A    between atoms: _383  and  _384
REMARK  154  A    between atoms: _384  and  _385
REMARK  155  A    between atoms: _388  and  _390
REMARK  156  A    between atoms: _390  and  _391
REMARK  157  A    between atoms: _390  and  _393
REMARK  158  A    between atoms: _393  and  _394
REMARK  159  A    between atoms: _396  and  _398
REMARK  160  A    between atoms: _398  and  _399
REMARK  161  A    between atoms: _398  and  _401
REMARK  162  A    between atoms: _401  and  _402
REMARK  163  A    between atoms: _405  and  _407
REMARK  164  A    between atoms: _407  and  _408
REMARK  165  A    between atoms: _407  and  _410
REMARK  166  A    between atoms: _410  and  _411
REMARK  167  A    between atoms: _411  and  _412
REMARK  168  A    between atoms: _412  and  _413
REMARK  169  A    between atoms: _422  and  _424
REMARK  170  A    between atoms: _424  and  _425
REMARK  171  A    between atoms: _424  and  _427
REMARK  172  A    between atoms: _427  and  _428
REMARK  173  A    between atoms: _433  and  _435
REMARK  174  A    between atoms: _435  and  _436
REMARK  175  A    between atoms: _435  and  _438
REMARK  176  A    between atoms: _438  and  _439
REMARK  177  A    between atoms: _442  and  _444
REMARK  178  A    between atoms: _444  and  _445
REMARK  179  A    between atoms: _444  and  _447
REMARK  180  A    between atoms: _447  and  _448
REMARK  181  A    between atoms: _453  and  _454
REMARK  182  A    between atoms: _456  and  _458
REMARK  183  A    between atoms: _458  and  _459
REMARK  184  A    between atoms: _458  and  _461
REMARK  185  A    between atoms: _461  and  _462
REMARK  186  A    between atoms: _465  and  _467
REMARK  187  A    between atoms: _467  and  _468
REMARK  188  A    between atoms: _467  and  _470
REMARK  189  A    between atoms: _470  and  _471
REMARK  190  A    between atoms: _471  and  _472
REMARK  191  A    between atoms: _477  and  _479
REMARK  192  A    between atoms: _479  and  _480
REMARK  193  A    between atoms: _479  and  _482
REMARK  194  A    between atoms: _482  and  _483
REMARK  195  A    between atoms: _483  and  _484
REMARK  196  A    between atoms: _484  and  _485
REMARK  197  A    between atoms: _494  and  _496
REMARK  198  A    between atoms: _496  and  _497
REMARK  199  A    between atoms: _496  and  _499
REMARK  200  A    between atoms: _499  and  _500
REMARK  201  A    between atoms: _505  and  _506
REMARK  202  A    between atoms: _508  and  _510
REMARK  203  A    between atoms: _510  and  _511
REMARK  204  A    between atoms: _513  and  _515
REMARK  205  A    between atoms: _515  and  _516
REMARK  206  A    between atoms: _515  and  _518
REMARK  207  A    between atoms: _518  and  _519
REMARK  208  A    between atoms: _524  and  _526
REMARK  209  A    between atoms: _526  and  _527
REMARK  210  A    between atoms: _526  and  _529
REMARK  211  A    between atoms: _529  and  _530
REMARK  212  A    between atoms: _530  and  _531
REMARK  213  A    between atoms: _536  and  _538
REMARK  214  A    between atoms: _538  and  _539
REMARK  215  A    between atoms: _538  and  _541
REMARK  216  A    between atoms: _541  and  _542
REMARK  217  A    between atoms: _548  and  _550
REMARK  218  A    between atoms: _550  and  _551
REMARK  219  A    between atoms: _554  and  _556
REMARK  220  A    between atoms: _556  and  _557
REMARK  221  A    between atoms: _556  and  _559
REMARK  222  A    between atoms: _559  and  _560
REMARK  223  A    between atoms: _565  and  _566
REMARK  224  A    between atoms: _568  and  _570
REMARK  225  A    between atoms: _570  and  _571
REMARK  226  A    between atoms: _570  and  _573
REMARK  227  A    between atoms: _573  and  _574
REMARK  228  A    between atoms: _579  and  _580
REMARK  229  A    between atoms: _582  and  _584
REMARK  230  A    between atoms: _584  and  _585
REMARK  231  A    between atoms: _584  and  _587
REMARK  232  A    between atoms: _587  and  _588
REMARK  233  A    between atoms: _591  and  _593
REMARK  234  A    between atoms: _593  and  _594
REMARK  235  A    between atoms: _593  and  _596
REMARK  236  A    between atoms: _596  and  _597
REMARK  237  A    between atoms: _607  and  _609
REMARK  238  A    between atoms: _609  and  _610
REMARK  239  A    between atoms: _613  and  _615
REMARK  240  A    between atoms: _615  and  _616
REMARK  241  A    between atoms: _619  and  _621
REMARK  242  A    between atoms: _621  and  _622
REMARK  243  A    between atoms: _621  and  _624
REMARK  244  A    between atoms: _624  and  _625
REMARK  245  A    between atoms: _625  and  _626
REMARK  246  A    between atoms: _631  and  _633
REMARK  247  A    between atoms: _633  and  _634
REMARK  248  A    between atoms: _633  and  _636
REMARK  249  A    between atoms: _636  and  _637
REMARK  250  A    between atoms: _640  and  _642
REMARK  251  A    between atoms: _642  and  _643
REMARK  252  A    between atoms: _642  and  _645
REMARK  253  A    between atoms: _645  and  _646
REMARK  254  A    between atoms: _649  and  _651
REMARK  255  A    between atoms: _651  and  _652
REMARK  256  A    between atoms: _651  and  _654
REMARK  257  A    between atoms: _654  and  _655
REMARK  258  A    between atoms: _655  and  _656
REMARK  259  A    between atoms: _661  and  _663
REMARK  260  A    between atoms: _663  and  _664
REMARK  261  A    between atoms: _663  and  _666
REMARK  262  A    between atoms: _666  and  _667
REMARK  263  A    between atoms: _667  and  _668
REMARK  264  A    between atoms: _668  and  _669
REMARK  265  A    between atoms: _678  and  _680
REMARK  266  A    between atoms: _680  and  _681
REMARK  267  A    between atoms: _680  and  _683
REMARK  268  A    between atoms: _683  and  _684
REMARK  269  A    between atoms: _684  and  _685
REMARK  270  A    between atoms: _685  and  _686
REMARK  271  A    between atoms: _686  and  _687
REMARK  272  A    between atoms: _691  and  _693
REMARK  273  A    between atoms: _693  and  _694
REMARK  274  A    between atoms: _693  and  _696
REMARK  275  A    between atoms: _696  and  _697
REMARK  276  A    between atoms: _707  and  _709
REMARK  277  A    between atoms: _709  and  _710
REMARK  278  A    between atoms: _713  and  _715
REMARK  279  A    between atoms: _715  and  _716
REMARK  280  A    between atoms: _719  and  _721
REMARK  281  A    between atoms: _721  and  _722
REMARK  282  A    between atoms: _721  and  _724
REMARK  283  A    between atoms: _724  and  _725
REMARK  284  A    between atoms: _725  and  _726
REMARK  285  A    between atoms: _726  and  _727
REMARK  286  A    between atoms: _736  and  _738
REMARK  287  A    between atoms: _738  and  _739
REMARK  288  A    between atoms: _738  and  _741
REMARK  289  A    between atoms: _744  and  _746
REMARK  290  A    between atoms: _746  and  _747
REMARK  291  A    between atoms: _750  and  _752
REMARK  292  A    between atoms: _752  and  _753
REMARK  293  A    between atoms: _752  and  _755
REMARK  294  A    between atoms: _755  and  _756
REMARK  295  A    between atoms: _756  and  _757
REMARK  296  A    between atoms: _760  and  _762
REMARK  297  A    between atoms: _762  and  _763
REMARK  298  A    between atoms: _762  and  _765
REMARK  299  A    between atoms: _765  and  _766
REMARK  300  A    between atoms: _766  and  _767
REMARK  301  A    between atoms: _772  and  _774
REMARK  302  A    between atoms: _774  and  _775
REMARK  303  A    between atoms: _774  and  _777
REMARK  304  A    between atoms: _777  and  _778
REMARK  305  A    between atoms: _781  and  _783
REMARK  306  A    between atoms: _783  and  _784
REMARK  307  A    between atoms: _783  and  _786
REMARK  308  A    between atoms: _786  and  _787
REMARK  309  A    between atoms: _787  and  _788
REMARK  310  A    between atoms: _788  and  _789
REMARK  311  A    between atoms: _798  and  _800
REMARK  312  A    between atoms: _800  and  _801
REMARK  313  A    between atoms: _800  and  _803
REMARK  314  A    between atoms: _803  and  _804
REMARK  315  A    between atoms: _807  and  _809
REMARK  316  A    between atoms: _809  and  _810
REMARK  317  A    between atoms: _809  and  _812
REMARK  318  A    between atoms: _812  and  _813
REMARK  319  A    between atoms: _818  and  _819
REMARK  320  A    between atoms: _821  and  _823
REMARK  321  A    between atoms: _823  and  _824
REMARK  322  A    between atoms: _823  and  _826
REMARK  323  A    between atoms: _826  and  _827
REMARK  324  A    between atoms: _830  and  _832
REMARK  325  A    between atoms: _832  and  _833
REMARK  326  A    between atoms: _832  and  _835
REMARK  327  A    between atoms: _835  and  _836
REMARK  328  A    between atoms: _839  and  _841
REMARK  329  A    between atoms: _841  and  _842
REMARK  330  A    between atoms: _841  and  _844
REMARK  331  A    between atoms: _846  and  _848
REMARK  332  A    between atoms: _848  and  _849
REMARK  333  A    between atoms: _848  and  _851
REMARK  334  A    between atoms: _854  and  _856
REMARK  335  A    between atoms: _856  and  _857
REMARK  336  A    between atoms: _856  and  _859
REMARK  337  A    between atoms: _859  and  _860
REMARK  338  A    between atoms: _860  and  _861
REMARK  339  A    between atoms: _864  and  _866
REMARK  340  A    between atoms: _866  and  _867
REMARK  341  A    between atoms: _866  and  _869
REMARK  342  A    between atoms: _869  and  _870
REMARK  343  A    between atoms: _880  and  _882
REMARK  344  A    between atoms: _882  and  _883
REMARK  345  A    between atoms: _882  and  _885
REMARK  346  A    between atoms: _885  and  _886
REMARK  347  A    between atoms: _889  and  _891
REMARK  348  A    between atoms: _891  and  _892
REMARK  349  A    between atoms: _891  and  _894
REMARK  350  A    between atoms: _894  and  _895
REMARK  351  A    between atoms: _900  and  _901
REMARK                            x       y       z     vdW  Elec       q    Type
REMARK                         _______ _______ _______ _____ _____    ______ ____
ROOT
ATOM      1  CG  TYR A   1     -14.698  11.635  26.140  0.00  0.00    -0.020 A 
ATOM      2  CD2 TYR A   1     -15.678  11.600  27.124  0.00  0.00    -0.001 A 
ATOM      3  CE2 TYR A   1     -15.377  11.912  28.441  0.00  0.00    +0.036 A 
ATOM      4  CZ  TYR A   1     -14.085  12.268  28.775  0.00  0.00    +0.134 A 
ATOM      5  CE1 TYR A   1     -13.105  12.313  27.814  0.00  0.00    +0.036 A 
ATOM      6  CD1 TYR A   1     -13.412  12.001  26.510  0.00  0.00    -0.001 A 
ENDROOT
BRANCH   4   7
ATOM      7  OH  TYR A   1     -13.754  12.585  30.073  0.00  0.00    -0.506 OA
ATOM      8  HH  TYR A   1     -13.056  11.961  30.396  0.00  0.00    +0.292 HD
ENDBRANCH   4   7
BRANCH   1   9
ATOM      9  CB  TYR A   1     -15.012  11.303  24.701  0.00  0.00    +0.051 C 
BRANCH   9  10
ATOM     10  CA  TYR A   1     -16.298  10.509  24.461  0.00  0.00    +0.137 C 
BRANCH  10  11
ATOM     11  N   TYR A   1     -16.228   9.185  25.081  0.00  0.00    -0.239 NA
ATOM     12  H   TYR A   1     -15.375   8.915  25.611  0.00  0.00    +0.142 HD
ENDBRANCH  10  11
BRANCH  10  13
ATOM     13  C   TYR A   1     -16.523  10.409  22.958  0.00  0.00    +0.224 C 
ATOM     14  O   TYR A   1     -17.107  11.304  22.350  0.00  0.00    -0.287 OA
ENDBRANCH  10  13
ENDBRANCH   9  10
ENDBRANCH   1   9
TORSDOF 5
REMARK  Name = ../refined-set-2016/4o2c/4o2c_pocket.pdb
REMARK  351 active torsions:
REMARK  status: ('A' for Active; 'I' for Inactive)
REMARK    1  A    between atoms: _1  and  _3
REMARK    2  A    between atoms: _3  and  _4
REMARK    3  A    between atoms: _3  and  _6
REMARK    4  A    between atoms: _6  and  _7
REMARK    5  A    between atoms: _7  and  _8
REMARK    6  A    between atoms: _10  and  _12
REMARK    7  A    between atoms: _12  and  _13
REMARK    8  A    between atoms: _12  and  _15
REMARK    9  A    between atoms: _15  and  _16
REMARK   10  A    between atoms: _16  and  _17
REMARK   11  A    between atoms: _17  and  _18
REMARK   12  A    between atoms: _27  and  _29
REMARK   13  A    between atoms: _29  and  _30
REMARK   14  A    between atoms: _29  and  _32
REMARK   15  A    between atoms: _32  and  _33
REMARK   16  A    between atoms: _38  and  _39
REMARK   17  A    between atoms: _41  and  _43
REMARK   18  A    between atoms: _43  and  _44
REMARK   19  A    between atoms: _43  and  _46
REMARK   20  A    between atoms: _46  and  _47
REMARK   21  A    between atoms: _53  and  _55
REMARK   22  A    between atoms: _55  and  _56
REMARK   23  A    between atoms: _55  and  _58
REMARK   24  A    between atoms: _58  and  _59
REMARK   25  A    between atoms: _64  and  _65
REMARK   26  A    between atoms: _67  and  _69
REMARK   27  A    between atoms: _69  and  _70
REMARK   28  A    between atoms: _69  and  _72
REMARK   29  A    between atoms: _72  and  _73
REMARK   30  A    between atoms: _79  and  _81
REMARK   31  A    between atoms: _81  and  _82
REMARK   32  A    between atoms: _81  and  _84
REMARK   33  A    between atoms: _84  and  _85
REMARK   34  A    between atoms: _88  and  _90
REMARK   35  A    between atoms: _90  and  _91
REMARK   36  A    between atoms: _90  and  _93
REMARK   37  A    between atoms: _93  and  _94
REMARK   38  A    between atoms: _96  and  _98
REMARK   39  A    between atoms: _98  and  _99
REMARK   40  A    between atoms: _98  and  _101
REMARK   41  A    between atoms: _104  and  _106
REMARK   42  A    between atoms: _106  and  _107
REMARK   43  A    between atoms: _109  and  _111
REMARK   44  A    between atoms: _111  and  _112
REMARK   45  A    between atoms: _111  and  _114
REMARK   46  A    between atoms: _114  and  _115
REMARK   47  A    between atoms: _121  and  _123
REMARK   48  A    between atoms: _123  and  _124
REMARK   49  A    between atoms: _123  and  _126
REMARK   50  A    between atoms: _129  and  _131
REMARK   51  A    between atoms: _131  and  _132
REMARK   52  A    between atoms: _131  and  _134
REMARK   53  A    between atoms: _134  and  _135
REMARK   54  A    between atoms: _135  and  _136
REMARK   55  A    between atoms: _136  and  _137
REMARK   56  A    between atoms: _146  and  _148
REMARK   57  A    between atoms: _148  and  _149
REMARK   58  A    between atoms: _148  and  _151
REMARK   59  A    between atoms: _151  and  _152
REMARK   60  A    between atoms: _158  and  _160
REMARK   61  A    between atoms: _160  and  _161
REMARK   62  A    between atoms: _160  and  _163
REMARK   63  A    between atoms: _163  and  _164
REMARK   64  A    between atoms: _164  and  _165
REMARK   65  A    between atoms: _168  and  _170
REMARK   66  A    between atoms: _170  and  _171
REMARK   67  A    between atoms: _170  and  _173
REMARK   68  A    between atoms: _173  and  _174
REMARK   69  A    between atoms: _174  and  _175
REMARK   70  A    between atoms: _178  and  _180
REMARK   71  A    between atoms: _180  and  _181
REMARK   72  A    between atoms: _180  and  _183
REMARK   73  A    between atoms: _183  and  _184
REMARK   74  A    between atoms: _187  and  _189
REMARK   75  A    between atoms: _189  and  _190
REMARK   76  A    between atoms: _189  and  _192
REMARK   77  A    between atoms: _192  and  _193
REMARK   78  A    between atoms: _193  and  _194
REMARK   79  A    between atoms: _197  and  _199
REMARK   80  A    between atoms: _199  and  _200
REMARK   81  A    between atoms: _199  and  _202
REMARK   82  A    between atoms: _202  and  _203
REMARK   83  A    between atoms: _203  and  _204
REMARK   84  A    between atoms: _207  and  _209
REMARK   85  A    between atoms: _209  and  _210
REMARK   86  A    between atoms: _209  and  _212
REMARK   87  A    between atoms: _212  and  _213
REMARK   88  A    between atoms: _218  and  _219
REMARK   89  A    between atoms: _221  and  _223
REMARK   90  A    between atoms: _223  and  _224
REMARK   91  A    between atoms: _223  and  _226
REMARK   92  A    between atoms: _226  and  _227
REMARK   93  A    between atoms: _237  and  _239
REMARK   94  A    between atoms: _239  and  _240
REMARK   95  A    between atoms: _239  and  _242
REMARK   96  A    between atoms: _242  and  _243
REMARK   97  A    between atoms: _246  and  _248
REMARK   98  A    between atoms: _248  and  _249
REMARK   99  A    between atoms: _248  and  _251
REMARK  100  A    between atoms: _251  and  _252
REMARK  101  A    between atoms: _252  and  _253
REMARK  102  A    between atoms: _253  and  _254
REMARK  103  A    between atoms: _263  and  _265
REMARK  104  A    between atoms: _265  and  _266
REMARK  105  A    between atoms: _265  and  _268
REMARK  106  A    between atoms: _268  and  _269
REMARK  107  A    between atoms: _274  and  _276
REMARK  108  A    between atoms: _276  and  _277
REMARK  109  A    between atoms: _276  and  _279
REMARK  110  A    between atoms: _279  and  _280
REMARK  111  A    between atoms: _283  and  _285
REMARK  112  A    between atoms: _285  and  _286
REMARK  113  A    between atoms: _285  and  _288
REMARK  114  A    between atoms: _288  and  _289
REMARK  115  A    between atoms: _289  and  _290
REMARK  116  A    between atoms: _295  and  _297
REMARK  117  A    between atoms: _297  and  _298
REMARK  118  A    between atoms: _297  and  _300
REMARK  119  A    between atoms: _300  and  _301
REMARK  120  A    between atoms: _304  and  _306
REMARK  121  A    between atoms: _306  and  _307
REMARK  122  A    between atoms: _306  and  _309
REMARK  123  A    between atoms: _311  and  _313
REMARK  124  A    between atoms: _313  and  _314
REMARK  125  A    between atoms: _313  and  _316
REMARK  126  A    between atoms: _316  and  _317
REMARK  127  A    between atoms: _320  and  _322
REMARK  128  A    between atoms: _322  and  _323
REMARK  129  A    between atoms: _322  and  _325
REMARK  130  A    between atoms: _325  and  _326
REMARK  131  A    between atoms: _331  and  _333
REMARK  132  A    between atoms: _333  and  _334
REMARK  133  A    between atoms: _333  and  _336
REMARK  134  A    between atoms: _336  and  _337
REMARK  135  A    between atoms: _337  and  _338
REMARK  136  A    between atoms: _343  and  _345
REMARK  137  A    between atoms: _345  and  _346
REMARK  138  A    between atoms: _345  and  _348
REMARK  139  A    between atoms: _348  and  _349
REMARK  140  A    between atoms: _352  and  _354
REMARK  141  A    between atoms: _354  and  _355
REMARK  142  A    between atoms: _354  and  _357
REMARK  143  A    between atoms: _357  and  _358
REMARK  144  A    between atoms: _361  and  _363
REMARK  145  A    between atoms: _363  and  _364
REMARK  146  A    between atoms: _363  and  _366
REMARK  147  A    between atoms: _366  and  _367
REMARK  148  A    between atoms: _367  and  _368
REMARK  149  A    between atoms: _368  and  _369
REMARK  150  A    between atoms: _378  and  _380
REMARK  151  A    between atoms: _380  and  _381
REMARK  152  A    between atoms: _380  and  _383
REMARK  153  A    between atoms: _383  and  _384
REMARK  154  A    between atoms: _384  and  _385
REMARK  155  A    between atoms: _388  and  _390
REMARK  156  A    between atoms: _390  and  _391
REMARK  157  A    between atoms: _390  and  _393
REMARK  158  A    between atoms: _393  and  _394
REMARK  159  A    between atoms: _396  and  _398
REMARK  160  A    between atoms: _398  and  _399
REMARK  161  A    between atoms: _398  and  _401
REMARK  162  A    between atoms: _401  and  _402
REMARK  163  A    between atoms: _405  and  _407
REMARK  164  A    between atoms: _407  and  _408
REMARK  165  A    between atoms: _407  and  _410
REMARK  166  A    between atoms: _410  and  _411
REMARK  167  A    between atoms: _411  and  _412
REMARK  168  A    between atoms: _412  and  _413
REMARK  169  A    between atoms: _422  and  _424
REMARK  170  A    between atoms: _424  and  _425
REMARK  171  A    between atoms: _424  and  _427
REMARK  172  A    between atoms: _427  and  _428
REMARK  173  A    between atoms: _433  and  _435
REMARK  174  A    between atoms: _435  and  _436
REMARK  175  A    between atoms: _435  and  _438
REMARK  176  A    between atoms: _438  and  _439
REMARK  177  A    between atoms: _442  and  _444
REMARK  178  A    between atoms: _444  and  _445
REMARK  179  A    between atoms: _444  and  _447
REMARK  180  A    between atoms: _447  and  _448
REMARK  181  A    between atoms: _453  and  _454
REMARK  182  A    between atoms: _456  and  _458
REMARK  183  A    between atoms: _458  and  _459
REMARK  184  A    between atoms: _458  and  _461
REMARK  185  A    between atoms: _461  and  _462
REMARK  186  A    between atoms: _465  and  _467
REMARK  187  A    between atoms: _467  and  _468
REMARK  188  A    between atoms: _467  and  _470
REMARK  189  A    between atoms: _470  and  _471
REMARK  190  A    between atoms: _471  and  _472
REMARK  191  A    between atoms: _477  and  _479
REMARK  192  A    between atoms: _479  and  _480
REMARK  193  A    between atoms: _479  and  _482
REMARK  194  A    between atoms: _482  and  _483
REMARK  195  A    between atoms: _483  and  _484
REMARK  196  A    between atoms: _484  and  _485
REMARK  197  A    between atoms: _494  and  _496
REMARK  198  A    between atoms: _496  and  _497
REMARK  199  A    between atoms: _496  and  _499
REMARK  200  A    between atoms: _499  and  _500
REMARK  201  A    between atoms: _505  and  _506
REMARK  202  A    between atoms: _508  and  _510
REMARK  203  A    between atoms: _510  and  _511
REMARK  204  A    between atoms: _513  and  _515
REMARK  205  A    between atoms: _515  and  _516
REMARK  206  A    between atoms: _515  and  _518
REMARK  207  A    between atoms: _518  and  _519
REMARK  208  A    between atoms: _524  and  _526
REMARK  209  A    between atoms: _526  and  _527
REMARK  210  A    between atoms: _526  and  _529
REMARK  211  A    between atoms: _529  and  _530
REMARK  212  A    between atoms: _530  and  _531
REMARK  213  A    between atoms: _536  and  _538
REMARK  214  A    between atoms: _538  and  _539
REMARK  215  A    between atoms: _538  and  _541
REMARK  216  A    between atoms: _541  and  _542
REMARK  217  A    between atoms: _548  and  _550
REMARK  218  A    between atoms: _550  and  _551
REMARK  219  A    between atoms: _554  and  _556
REMARK  220  A    between atoms: _556  and  _557
REMARK  221  A    between atoms: _556  and  _559
REMARK  222  A    between atoms: _559  and  _560
REMARK  223  A    between atoms: _565  and  _566
REMARK  224  A    between atoms: _568  and  _570
REMARK  225  A    between atoms: _570  and  _571
REMARK  226  A    between atoms: _570  and  _573
REMARK  227  A    between atoms: _573  and  _574
REMARK  228  A    between atoms: _579  and  _580
REMARK  229  A    between atoms: _582  and  _584
REMARK  230  A    between atoms: _584  and  _585
REMARK  231  A    between atoms: _584  and  _587
REMARK  232  A    between atoms: _587  and  _588
REMARK  233  A    between atoms: _591  and  _593
REMARK  234  A    between atoms: _593  and  _594
REMARK  235  A    between atoms: _593  and  _596
REMARK  236  A    between atoms: _596  and  _597
REMARK  237  A    between atoms: _607  and  _609
REMARK  238  A    between atoms: _609  and  _610
REMARK  239  A    between atoms: _613  and  _615
REMARK  240  A    between atoms: _615  and  _616
REMARK  241  A    between atoms: _619  and  _621
REMARK  242  A    between atoms: _621  and  _622
REMARK  243  A    between atoms: _621  and  _624
REMARK  244  A    between atoms: _624  and  _625
REMARK  245  A    between atoms: _625  and  _626
REMARK  246  A    between atoms: _631  and  _633
REMARK  247  A    between atoms: _633  and  _634
REMARK  248  A    between atoms: _633  and  _636
REMARK  249  A    between atoms: _636  and  _637
REMARK  250  A    between atoms: _640  and  _642
REMARK  251  A    between atoms: _642  and  _643
REMARK  252  A    between atoms: _642  and  _645
REMARK  253  A    between atoms: _645  and  _646
REMARK  254  A    between atoms: _649  and  _651
REMARK  255  A    between atoms: _651  and  _652
REMARK  256  A    between atoms: _651  and  _654
REMARK  257  A    between atoms: _654  and  _655
REMARK  258  A    between atoms: _655  and  _656
REMARK  259  A    between atoms: _661  and  _663
REMARK  260  A    between atoms: _663  and  _664
REMARK  261  A    between atoms: _663  and  _666
REMARK  262  A    between atoms: _666  and  _667
REMARK  263  A    between atoms: _667  and  _668
REMARK  264  A    between atoms: _668  and  _669
REMARK  265  A    between atoms: _678  and  _680
REMARK  266  A    between atoms: _680  and  _681
REMARK  267  A    between atoms: _680  and  _683
REMARK  268  A    between atoms: _683  and  _684
REMARK  269  A    between atoms: _684  and  _685
REMARK  270  A    between atoms: _685  and  _686
REMARK  271  A    between atoms: _686  and  _687
REMARK  272  A    between atoms: _691  and  _693
REMARK  273  A    between atoms: _693  and  _694
REMARK  274  A    between atoms: _693  and  _696
REMARK  275  A    between atoms: _696  and  _697
REMARK  276  A    between atoms: _707  and  _709
REMARK  277  A    between atoms: _709  and  _710
REMARK  278  A    between atoms: _713  and  _715
REMARK  279  A    between atoms: _715  and  _716
REMARK  280  A    between atoms: _719  and  _721
REMARK  281  A    between atoms: _721  and  _722
REMARK  282  A    between atoms: _721  and  _724
REMARK  283  A    between atoms: _724  and  _725
REMARK  284  A    between atoms: _725  and  _726
REMARK  285  A    between atoms: _726  and  _727
REMARK  286  A    between atoms: _736  and  _738
REMARK  287  A    between atoms: _738  and  _739
REMARK  288  A    between atoms: _738  and  _741
REMARK  289  A    between atoms: _744  and  _746
REMARK  290  A    between atoms: _746  and  _747
REMARK  291  A    between atoms: _750  and  _752
REMARK  292  A    between atoms: _752  and  _753
REMARK  293  A    between atoms: _752  and  _755
REMARK  294  A    between atoms: _755  and  _756
REMARK  295  A    between atoms: _756  and  _757
REMARK  296  A    between atoms: _760  and  _762
REMARK  297  A    between atoms: _762  and  _763
REMARK  298  A    between atoms: _762  and  _765
REMARK  299  A    between atoms: _765  and  _766
REMARK  300  A    between atoms: _766  and  _767
REMARK  301  A    between atoms: _772  and  _774
REMARK  302  A    between atoms: _774  and  _775
REMARK  303  A    between atoms: _774  and  _777
REMARK  304  A    between atoms: _777  and  _778
REMARK  305  A    between atoms: _781  and  _783
REMARK  306  A    between atoms: _783  and  _784
REMARK  307  A    between atoms: _783  and  _786
REMARK  308  A    between atoms: _786  and  _787
REMARK  309  A    between atoms: _787  and  _788
REMARK  310  A    between atoms: _788  and  _789
REMARK  311  A    between atoms: _798  and  _800
REMARK  312  A    between atoms: _800  and  _801
REMARK  313  A    between atoms: _800  and  _803
REMARK  314  A    between atoms: _803  and  _804
REMARK  315  A    between atoms: _807  and  _809
REMARK  316  A    between atoms: _809  and  _810
REMARK  317  A    between atoms: _809  and  _812
REMARK  318  A    between atoms: _812  and  _813
REMARK  319  A    between atoms: _818  and  _819
REMARK  320  A    between atoms: _821  and  _823
REMARK  321  A    between atoms: _823  and  _824
REMARK  322  A    between atoms: _823  and  _826
REMARK  323  A    between atoms: _826  and  _827
REMARK  324  A    between atoms: _830  and  _832
REMARK  325  A    between atoms: _832  and  _833
REMARK  326  A    between atoms: _832  and  _835
REMARK  327  A    between atoms: _835  and  _836
REMARK  328  A    between atoms: _839  and  _841
REMARK  329  A    between atoms: _841  and  _842
REMARK  330  A    between atoms: _841  and  _844
REMARK  331  A    between atoms: _846  and  _848
REMARK  332  A    between atoms: _848  and  _849
REMARK  333  A    between atoms: _848  and  _851
REMARK  334  A    between atoms: _854  and  _856
REMARK  335  A    between atoms: _856  and  _857
REMARK  336  A    between atoms: _856  and  _859
REMARK  337  A    between atoms: _859  and  _860
REMARK  338  A    between atoms: _860  and  _861
REMARK  339  A    between atoms: _864  and  _866
REMARK  340  A    between atoms: _866  and  _867
REMARK  341  A    between atoms: _866  and  _869
REMARK  342  A    between atoms: _869  and  _870
REMARK  343  A    between atoms: _880  and  _882
REMARK  344  A    between atoms: _882  and  _883
REMARK  345  A    between atoms: _882  and  _885
REMARK  346  A    between atoms: _885  and  _886
REMARK  347  A    between atoms: _889  and  _891
REMARK  348  A    between atoms: _891  and  _892
REMARK  349  A    between atoms: _891  and  _894
REMARK  350  A    between atoms: _894  and  _895
REMARK  351  A    between atoms: _900  and  _901
REMARK                            x       y       z     vdW  Elec       q    Type
REMARK                         _______ _______ _______ _____ _____    ______ ____
ROOT
ATOM      1  CA  GLN A   2       0.079   9.203  24.119  0.00  0.00    +0.149 C 
ENDROOT
BRANCH   1   4
ATOM      2  C   LEU A   1      -1.728   7.617  24.487  0.00  0.00    +0.238 C 
ATOM      3  O   LEU A   1      -0.988   6.837  25.088  0.00  0.00    -0.274 OA
ATOM      4  N   GLN A   2      -1.303   8.764  23.970  0.00  0.00    -0.297 N 
ATOM      5  H   GLN A   2      -1.972   9.363  23.446  0.00  0.00    +0.150 HD
BRANCH   2   6
ATOM      6  CA  LEU A   1      -3.201   7.288  24.282  0.00  0.00    +0.145 C 
BRANCH   6   7
ATOM      7  N   LEU A   1      -3.308   5.998  23.617  0.00  0.00    -0.238 NA
ATOM      8  H   LEU A   1      -2.908   5.156  24.078  0.00  0.00    +0.142 HD
ENDBRANCH   6   7
BRANCH   6   9
ATOM      9  CB  LEU A   1      -3.928   7.273  25.627  0.00  0.00    +0.026 C 
BRANCH   9  10
ATOM     10  CG  LEU A   1      -3.769   8.527  26.495  0.00  0.00    +0.002 C 
ATOM     11  CD2 LEU A   1      -4.530   8.369  27.803  0.00  0.00    +0.000 C 
ATOM     12  CD1 LEU A   1      -4.235   9.771  25.747  0.00  0.00    +0.000 C 
ENDBRANCH   9  10
ENDBRANCH   6   9
ENDBRANCH   2   6
ENDBRANCH   1   4
BRANCH   1  13
ATOM     13  C   GLN A   2       0.158  10.524  24.866  0.00  0.00    +0.241 C 
ATOM     14  N   ARG A   3       1.223  10.686  25.643  0.00  0.00    -0.298 N 
ATOM     15  H   ARG A   3       1.887   9.894  25.759  0.00  0.00    +0.150 HD
ATOM     16  O   GLN A   2      -0.715  11.379  24.730  0.00  0.00    -0.273 OA
BRANCH  14  17
ATOM     17  CA  ARG A   3       1.489  11.934  26.336  0.00  0.00    +0.137 C 
BRANCH  17  18
ATOM     18  C   ARG A   3       2.963  12.273  26.216  0.00  0.00    +0.227 C 
ATOM     19  O   ARG A   3       3.822  11.401  26.353  0.00  0.00    -0.286 OA
ENDBRANCH  17  18
BRANCH  17  20
ATOM     20  CB  ARG A   3       1.119  11.817  27.817  0.00  0.00    +0.031 C 
BRANCH  20  21
ATOM     21  CG  ARG A   3       1.396  13.079  28.633  0.00  0.00    +0.045 C 
BRANCH  21  22
ATOM     22  CD  ARG A   3       1.132  12.840  30.112  0.00  0.00    +0.174 C 
BRANCH  22  23
ATOM     23  NE  ARG A   3       1.169  14.077  30.888  0.00  0.00    -0.265 N 
ATOM     24  CZ  ARG A   3       0.993  14.137  32.204  0.00  0.00    +0.342 C 
ATOM     25  NH2 ARG A   3       0.773  13.026  32.897  0.00  0.00    -0.292 N 
ATOM     26 HH21 ARG A   3       0.635  13.074  33.927  0.00  0.00    +0.255 HD
ATOM     27 HH22 ARG A   3       0.738  12.108  32.410  0.00  0.00    +0.255 HD
ATOM     28  NH1 ARG A   3       1.043  15.305  32.828  0.00  0.00    -0.292 N 
ATOM     29 HH11 ARG A   3       0.905  15.351  33.858  0.00  0.00    +0.255 HD
ATOM     30 HH12 ARG A   3       1.220  16.176  32.288  0.00  0.00    +0.255 HD
ATOM     31  HE  ARG A   3       1.344  14.967  30.379  0.00  0.00    +0.259 HD
ENDBRANCH  22  23
ENDBRANCH  21  22
ENDBRANCH  20  21
ENDBRANCH  17  20
ENDBRANCH  14  17
ENDBRANCH   1  13
BRANCH   1  32
ATOM     32  CB  GLN A   2       0.741   9.367  22.751  0.00  0.00    +0.039 C 
BRANCH  32  33
ATOM     33  CG  GLN A   2       1.001   8.064  22.021  0.00  0.00    +0.087 C 
BRANCH  33  34
ATOM     34  CD  GLN A   2       1.260   8.286  20.547  0.00  0.00    +0.219 C 
ATOM     35  NE2 GLN A   2       2.532   8.393  20.175  0.00  0.00    -0.329 N 
ATOM     36 HE21 GLN A   2       3.289   8.312  20.883  0.00  0.00    +0.145 HD
ATOM     37 HE22 GLN A   2       2.770   8.558  19.176  0.00  0.00    +0.145 HD
ATOM     38  OE1 GLN A   2       0.327   8.374  19.751  0.00  0.00    -0.275 OA
ENDBRANCH  33  34
ENDBRANCH  32  33
ENDBRANCH   1  32
TORSDOF 15
REMARK  Name = ../refined-set-2016/4o2c/4o2c_pocket.pdb
REMARK  351 active torsions:
REMARK  status: ('A' for Active; 'I' for Inactive)
REMARK    1  A    between atoms: _1  and  _3
REMARK    2  A    between atoms: _3  and  _4
REMARK    3  A    between atoms: _3  and  _6
REMARK    4  A    between atoms: _6  and  _7
REMARK    5  A    between atoms: _7  and  _8
REMARK    6  A    between atoms: _10  and  _12
REMARK    7  A    between atoms: _12  and  _13
REMARK    8  A    between atoms: _12  and  _15
REMARK    9  A    between atoms: _15  and  _16
REMARK   10  A    between atoms: _16  and  _17
REMARK   11  A    between atoms: _17  and  _18
REMARK   12  A    between atoms: _27  and  _29
REMARK   13  A    between atoms: _29  and  _30
REMARK   14  A    between atoms: _29  and  _32
REMARK   15  A    between atoms: _32  and  _33
REMARK   16  A    between atoms: _38  and  _39
REMARK   17  A    between atoms: _41  and  _43
REMARK   18  A    between atoms: _43  and  _44
REMARK   19  A    between atoms: _43  and  _46
REMARK   20  A    between atoms: _46  and  _47
REMARK   21  A    between atoms: _53  and  _55
REMARK   22  A    between atoms: _55  and  _56
REMARK   23  A    between atoms: _55  and  _58
REMARK   24  A    between atoms: _58  and  _59
REMARK   25  A    between atoms: _64  and  _65
REMARK   26  A    between atoms: _67  and  _69
REMARK   27  A    between atoms: _69  and  _70
REMARK   28  A    between atoms: _69  and  _72
REMARK   29  A    between atoms: _72  and  _73
REMARK   30  A    between atoms: _79  and  _81
REMARK   31  A    between atoms: _81  and  _82
REMARK   32  A    between atoms: _81  and  _84
REMARK   33  A    between atoms: _84  and  _85
REMARK   34  A    between atoms: _88  and  _90
REMARK   35  A    between atoms: _90  and  _91
REMARK   36  A    between atoms: _90  and  _93
REMARK   37  A    between atoms: _93  and  _94
REMARK   38  A    between atoms: _96  and  _98
REMARK   39  A    between atoms: _98  and  _99
REMARK   40  A    between atoms: _98  and  _101
REMARK   41  A    between atoms: _104  and  _106
REMARK   42  A    between atoms: _106  and  _107
REMARK   43  A    between atoms: _109  and  _111
REMARK   44  A    between atoms: _111  and  _112
REMARK   45  A    between atoms: _111  and  _114
REMARK   46  A    between atoms: _114  and  _115
REMARK   47  A    between atoms: _121  and  _123
REMARK   48  A    between atoms: _123  and  _124
REMARK   49  A    between atoms: _123  and  _126
REMARK   50  A    between atoms: _129  and  _131
REMARK   51  A    between atoms: _131  and  _132
REMARK   52  A    between atoms: _131  and  _134
REMARK   53  A    between atoms: _134  and  _135
REMARK   54  A    between atoms: _135  and  _136
REMARK   55  A    between atoms: _136  and  _137
REMARK   56  A    between atoms: _146  and  _148
REMARK   57  A    between atoms: _148  and  _149
REMARK   58  A    between atoms: _148  and  _151
REMARK   59  A    between atoms: _151  and  _152
REMARK   60  A    between atoms: _158  and  _160
REMARK   61  A    between atoms: _160  and  _161
REMARK   62  A    between atoms: _160  and  _163
REMARK   63  A    between atoms: _163  and  _164
REMARK   64  A    between atoms: _164  and  _165
REMARK   65  A    between atoms: _168  and  _170
REMARK   66  A    between atoms: _170  and  _171
REMARK   67  A    between atoms: _170  and  _173
REMARK   68  A    between atoms: _173  and  _174
REMARK   69  A    between atoms: _174  and  _175
REMARK   70  A    between atoms: _178  and  _180
REMARK   71  A    between atoms: _180  and  _181
REMARK   72  A    between atoms: _180  and  _183
REMARK   73  A    between atoms: _183  and  _184
REMARK   74  A    between atoms: _187  and  _189
REMARK   75  A    between atoms: _189  and  _190
REMARK   76  A    between atoms: _189  and  _192
REMARK   77  A    between atoms: _192  and  _193
REMARK   78  A    between atoms: _193  and  _194
REMARK   79  A    between atoms: _197  and  _199
REMARK   80  A    between atoms: _199  and  _200
REMARK   81  A    between atoms: _199  and  _202
REMARK   82  A    between atoms: _202  and  _203
REMARK   83  A    between atoms: _203  and  _204
REMARK   84  A    between atoms: _207  and  _209
REMARK   85  A    between atoms: _209  and  _210
REMARK   86  A    between atoms: _209  and  _212
REMARK   87  A    between atoms: _212  and  _213
REMARK   88  A    between atoms: _218  and  _219
REMARK   89  A    between atoms: _221  and  _223
REMARK   90  A    between atoms: _223  and  _224
REMARK   91  A    between atoms: _223  and  _226
REMARK   92  A    between atoms: _226  and  _227
REMARK   93  A    between atoms: _237  and  _239
REMARK   94  A    between atoms: _239  and  _240
REMARK   95  A    between atoms: _239  and  _242
REMARK   96  A    between atoms: _242  and  _243
REMARK   97  A    between atoms: _246  and  _248
REMARK   98  A    between atoms: _248  and  _249
REMARK   99  A    between atoms: _248  and  _251
REMARK  100  A    between atoms: _251  and  _252
REMARK  101  A    between atoms: _252  and  _253
REMARK  102  A    between atoms: _253  and  _254
REMARK  103  A    between atoms: _263  and  _265
REMARK  104  A    between atoms: _265  and  _266
REMARK  105  A    between atoms: _265  and  _268
REMARK  106  A    between atoms: _268  and  _269
REMARK  107  A    between atoms: _274  and  _276
REMARK  108  A    between atoms: _276  and  _277
REMARK  109  A    between atoms: _276  and  _279
REMARK  110  A    between atoms: _279  and  _280
REMARK  111  A    between atoms: _283  and  _285
REMARK  112  A    between atoms: _285  and  _286
REMARK  113  A    between atoms: _285  and  _288
REMARK  114  A    between atoms: _288  and  _289
REMARK  115  A    between atoms: _289  and  _290
REMARK  116  A    between atoms: _295  and  _297
REMARK  117  A    between atoms: _297  and  _298
REMARK  118  A    between atoms: _297  and  _300
REMARK  119  A    between atoms: _300  and  _301
REMARK  120  A    between atoms: _304  and  _306
REMARK  121  A    between atoms: _306  and  _307
REMARK  122  A    between atoms: _306  and  _309
REMARK  123  A    between atoms: _311  and  _313
REMARK  124  A    between atoms: _313  and  _314
REMARK  125  A    between atoms: _313  and  _316
REMARK  126  A    between atoms: _316  and  _317
REMARK  127  A    between atoms: _320  and  _322
REMARK  128  A    between atoms: _322  and  _323
REMARK  129  A    between atoms: _322  and  _325
REMARK  130  A    between atoms: _325  and  _326
REMARK  131  A    between atoms: _331  and  _333
REMARK  132  A    between atoms: _333  and  _334
REMARK  133  A    between atoms: _333  and  _336
REMARK  134  A    between atoms: _336  and  _337
REMARK  135  A    between atoms: _337  and  _338
REMARK  136  A    between atoms: _343  and  _345
REMARK  137  A    between atoms: _345  and  _346
REMARK  138  A    between atoms: _345  and  _348
REMARK  139  A    between atoms: _348  and  _349
REMARK  140  A    between atoms: _352  and  _354
REMARK  141  A    between atoms: _354  and  _355
REMARK  142  A    between atoms: _354  and  _357
REMARK  143  A    between atoms: _357  and  _358
REMARK  144  A    between atoms: _361  and  _363
REMARK  145  A    between atoms: _363  and  _364
REMARK  146  A    between atoms: _363  and  _366
REMARK  147  A    between atoms: _366  and  _367
REMARK  148  A    between atoms: _367  and  _368
REMARK  149  A    between atoms: _368  and  _369
REMARK  150  A    between atoms: _378  and  _380
REMARK  151  A    between atoms: _380  and  _381
REMARK  152  A    between atoms: _380  and  _383
REMARK  153  A    between atoms: _383  and  _384
REMARK  154  A    between atoms: _384  and  _385
REMARK  155  A    between atoms: _388  and  _390
REMARK  156  A    between atoms: _390  and  _391
REMARK  157  A    between atoms: _390  and  _393
REMARK  158  A    between atoms: _393  and  _394
REMARK  159  A    between atoms: _396  and  _398
REMARK  160  A    between atoms: _398  and  _399
REMARK  161  A    between atoms: _398  and  _401
REMARK  162  A    between atoms: _401  and  _402
REMARK  163  A    between atoms: _405  and  _407
REMARK  164  A    between atoms: _407  and  _408
REMARK  165  A    between atoms: _407  and  _410
REMARK  166  A    between atoms: _410  and  _411
REMARK  167  A    between atoms: _411  and  _412
REMARK  168  A    between atoms: _412  and  _413
REMARK  169  A    between atoms: _422  and  _424
REMARK  170  A    between atoms: _424  and  _425
REMARK  171  A    between atoms: _424  and  _427
REMARK  172  A    between atoms: _427  and  _428
REMARK  173  A    between atoms: _433  and  _435
REMARK  174  A    between atoms: _435  and  _436
REMARK  175  A    between atoms: _435  and  _438
REMARK  176  A    between atoms: _438  and  _439
REMARK  177  A    between atoms: _442  and  _444
REMARK  178  A    between atoms: _444  and  _445
REMARK  179  A    between atoms: _444  and  _447
REMARK  180  A    between atoms: _447  and  _448
REMARK  181  A    between atoms: _453  and  _454
REMARK  182  A    between atoms: _456  and  _458
REMARK  183  A    between atoms: _458  and  _459
REMARK  184  A    between atoms: _458  and  _461
REMARK  185  A    between atoms: _461  and  _462
REMARK  186  A    between atoms: _465  and  _467
REMARK  187  A    between atoms: _467  and  _468
REMARK  188  A    between atoms: _467  and  _470
REMARK  189  A    between atoms: _470  and  _471
REMARK  190  A    between atoms: _471  and  _472
REMARK  191  A    between atoms: _477  and  _479
REMARK  192  A    between atoms: _479  and  _480
REMARK  193  A    between atoms: _479  and  _482
REMARK  194  A    between atoms: _482  and  _483
REMARK  195  A    between atoms: _483  and  _484
REMARK  196  A    between atoms: _484  and  _485
REMARK  197  A    between atoms: _494  and  _496
REMARK  198  A    between atoms: _496  and  _497
REMARK  199  A    between atoms: _496  and  _499
REMARK  200  A    between atoms: _499  and  _500
REMARK  201  A    between atoms: _505  and  _506
REMARK  202  A    between atoms: _508  and  _510
REMARK  203  A    between atoms: _510  and  _511
REMARK  204  A    between atoms: _513  and  _515
REMARK  205  A    between atoms: _515  and  _516
REMARK  206  A    between atoms: _515  and  _518
REMARK  207  A    between atoms: _518  and  _519
REMARK  208  A    between atoms: _524  and  _526
REMARK  209  A    between atoms: _526  and  _527
REMARK  210  A    between atoms: _526  and  _529
REMARK  211  A    between atoms: _529  and  _530
REMARK  212  A    between atoms: _530  and  _531
REMARK  213  A    between atoms: _536  and  _538
REMARK  214  A    between atoms: _538  and  _539
REMARK  215  A    between atoms: _538  and  _541
REMARK  216  A    between atoms: _541  and  _542
REMARK  217  A    between atoms: _548  and  _550
REMARK  218  A    between atoms: _550  and  _551
REMARK  219  A    between atoms: _554  and  _556
REMARK  220  A    between atoms: _556  and  _557
REMARK  221  A    between atoms: _556  and  _559
REMARK  222  A    between atoms: _559  and  _560
REMARK  223  A    between atoms: _565  and  _566
REMARK  224  A    between atoms: _568  and  _570
REMARK  225  A    between atoms: _570  and  _571
REMARK  226  A    between atoms: _570  and  _573
REMARK  227  A    between atoms: _573  and  _574
REMARK  228  A    between atoms: _579  and  _580
REMARK  229  A    between atoms: _582  and  _584
REMARK  230  A    between atoms: _584  and  _585
REMARK  231  A    between atoms: _584  and  _587
REMARK  232  A    between atoms: _587  and  _588
REMARK  233  A    between atoms: _591  and  _593
REMARK  234  A    between atoms: _593  and  _594
REMARK  235  A    between atoms: _593  and  _596
REMARK  236  A    between atoms: _596  and  _597
REMARK  237  A    between atoms: _607  and  _609
REMARK  238  A    between atoms: _609  and  _610
REMARK  239  A    between atoms: _613  and  _615
REMARK  240  A    between atoms: _615  and  _616
REMARK  241  A    between atoms: _619  and  _621
REMARK  242  A    between atoms: _621  and  _622
REMARK  243  A    between atoms: _621  and  _624
REMARK  244  A    between atoms: _624  and  _625
REMARK  245  A    between atoms: _625  and  _626
REMARK  246  A    between atoms: _631  and  _633
REMARK  247  A    between atoms: _633  and  _634
REMARK  248  A    between atoms: _633  and  _636
REMARK  249  A    between atoms: _636  and  _637
REMARK  250  A    between atoms: _640  and  _642
REMARK  251  A    between atoms: _642  and  _643
REMARK  252  A    between atoms: _642  and  _645
REMARK  253  A    between atoms: _645  and  _646
REMARK  254  A    between atoms: _649  and  _651
REMARK  255  A    between atoms: _651  and  _652
REMARK  256  A    between atoms: _651  and  _654
REMARK  257  A    between atoms: _654  and  _655
REMARK  258  A    between atoms: _655  and  _656
REMARK  259  A    between atoms: _661  and  _663
REMARK  260  A    between atoms: _663  and  _664
REMARK  261  A    between atoms: _663  and  _666
REMARK  262  A    between atoms: _666  and  _667
REMARK  263  A    between atoms: _667  and  _668
REMARK  264  A    between atoms: _668  and  _669
REMARK  265  A    between atoms: _678  and  _680
REMARK  266  A    between atoms: _680  and  _681
REMARK  267  A    between atoms: _680  and  _683
REMARK  268  A    between atoms: _683  and  _684
REMARK  269  A    between atoms: _684  and  _685
REMARK  270  A    between atoms: _685  and  _686
REMARK  271  A    between atoms: _686  and  _687
REMARK  272  A    between atoms: _691  and  _693
REMARK  273  A    between atoms: _693  and  _694
REMARK  274  A    between atoms: _693  and  _696
REMARK  275  A    between atoms: _696  and  _697
REMARK  276  A    between atoms: _707  and  _709
REMARK  277  A    between atoms: _709  and  _710
REMARK  278  A    between atoms: _713  and  _715
REMARK  279  A    between atoms: _715  and  _716
REMARK  280  A    between atoms: _719  and  _721
REMARK  281  A    between atoms: _721  and  _722
REMARK  282  A    between atoms: _721  and  _724
REMARK  283  A    between atoms: _724  and  _725
REMARK  284  A    between atoms: _725  and  _726
REMARK  285  A    between atoms: _726  and  _727
REMARK  286  A    between atoms: _736  and  _738
REMARK  287  A    between atoms: _738  and  _739
REMARK  288  A    between atoms: _738  and  _741
REMARK  289  A    between atoms: _744  and  _746
REMARK  290  A    between atoms: _746  and  _747
REMARK  291  A    between atoms: _750  and  _752
REMARK  292  A    between atoms: _752  and  _753
REMARK  293  A    between atoms: _752  and  _755
REMARK  294  A    between atoms: _755  and  _756
REMARK  295  A    between atoms: _756  and  _757
REMARK  296  A    between atoms: _760  and  _762
REMARK  297  A    between atoms: _762  and  _763
REMARK  298  A    between atoms: _762  and  _765
REMARK  299  A    between atoms: _765  and  _766
REMARK  300  A    between atoms: _766  and  _767
REMARK  301  A    between atoms: _772  and  _774
REMARK  302  A    between atoms: _774  and  _775
REMARK  303  A    between atoms: _774  and  _777
REMARK  304  A    between atoms: _777  and  _778
REMARK  305  A    between atoms: _781  and  _783
REMARK  306  A    between atoms: _783  and  _784
REMARK  307  A    between atoms: _783  and  _786
REMARK  308  A    between atoms: _786  and  _787
REMARK  309  A    between atoms: _787  and  _788
REMARK  310  A    between atoms: _788  and  _789
REMARK  311  A    between atoms: _798  and  _800
REMARK  312  A    between atoms: _800  and  _801
REMARK  313  A    between atoms: _800  and  _803
REMARK  314  A    between atoms: _803  and  _804
REMARK  315  A    between atoms: _807  and  _809
REMARK  316  A    between atoms: _809  and  _810
REMARK  317  A    between atoms: _809  and  _812
REMARK  318  A    between atoms: _812  and  _813
REMARK  319  A    between atoms: _818  and  _819
REMARK  320  A    between atoms: _821  and  _823
REMARK  321  A    between atoms: _823  and  _824
REMARK  322  A    between atoms: _823  and  _826
REMARK  323  A    between atoms: _826  and  _827
REMARK  324  A    between atoms: _830  and  _832
REMARK  325  A    between atoms: _832  and  _833
REMARK  326  A    between atoms: _832  and  _835
REMARK  327  A    between atoms: _835  and  _836
REMARK  328  A    between atoms: _839  and  _841
REMARK  329  A    between atoms: _841  and  _842
REMARK  330  A    between atoms: _841  and  _844
REMARK  331  A    between atoms: _846  and  _848
REMARK  332  A    between atoms: _848  and  _849
REMARK  333  A    between atoms: _848  and  _851
REMARK  334  A    between atoms: _854  and  _856
REMARK  335  A    between atoms: _856  and  _857
REMARK  336  A    between atoms: _856  and  _859
REMARK  337  A    between atoms: _859  and  _860
REMARK  338  A    between atoms: _860  and  _861
REMARK  339  A    between atoms: _864  and  _866
REMARK  340  A    between atoms: _866  and  _867
REMARK  341  A    between atoms: _866  and  _869
REMARK  342  A    between atoms: _869  and  _870
REMARK  343  A    between atoms: _880  and  _882
REMARK  344  A    between atoms: _882  and  _883
REMARK  345  A    between atoms: _882  and  _885
REMARK  346  A    between atoms: _885  and  _886
REMARK  347  A    between atoms: _889  and  _891
REMARK  348  A    between atoms: _891  and  _892
REMARK  349  A    between atoms: _891  and  _894
REMARK  350  A    between atoms: _894  and  _895
REMARK  351  A    between atoms: _900  and  _901
REMARK                            x       y       z     vdW  Elec       q    Type
REMARK                         _______ _______ _______ _____ _____    ______ ____
ROOT
ATOM      1  CA  TYR A   1       5.642  16.549  28.762  0.00  0.00    +0.149 C 
ENDROOT
BRANCH   1   2
ATOM      2  C   TYR A   1       7.089  16.740  29.187  0.00  0.00    +0.239 C 
ATOM      3  N   GLY A   2       7.413  17.942  29.642  0.00  0.00    -0.297 N 
ATOM      4  H   GLY A   2       6.689  18.686  29.693  0.00  0.00    +0.150 HD
ATOM      5  O   TYR A   1       7.900  15.820  29.097  0.00  0.00    -0.274 OA
BRANCH   3   6
ATOM      6  CA  GLY A   2       8.767  18.227  30.068  0.00  0.00    +0.163 C 
BRANCH   6   7
ATOM      7  C   GLY A   2       9.110  19.691  29.927  0.00  0.00    +0.229 C 
ATOM      8  O   GLY A   2       8.236  20.531  29.711  0.00  0.00    -0.286 OA
ENDBRANCH   6   7
ENDBRANCH   3   6
ENDBRANCH   1   2
BRANCH   1   9
ATOM      9  N   TYR A   1       5.523  15.372  27.923  0.00  0.00    -0.238 NA
ATOM     10  H   TYR A   1       6.174  14.574  28.067  0.00  0.00    +0.142 HD
ENDBRANCH   1   9
BRANCH   1  11
ATOM     11  CB  TYR A   1       4.713  16.460  29.977  0.00  0.00    +0.053 C 
BRANCH  11  12
ATOM     12  CG  TYR A   1       5.113  15.441  31.023  0.00  0.00    -0.020 A 
ATOM     13  CD2 TYR A   1       5.954  15.789  32.072  0.00  0.00    -0.001 A 
ATOM     14  CE2 TYR A   1       6.314  14.865  33.040  0.00  0.00    +0.036 A 
ATOM     15  CZ  TYR A   1       5.826  13.576  32.970  0.00  0.00    +0.134 A 
ATOM     16  CE1 TYR A   1       4.982  13.207  31.944  0.00  0.00    +0.036 A 
ATOM     17  CD1 TYR A   1       4.627  14.139  30.979  0.00  0.00    -0.001 A 
BRANCH  15  18
ATOM     18  OH  TYR A   1       6.183  12.655  33.933  0.00  0.00    -0.506 OA
ATOM     19  HH  TYR A   1       5.370  12.331  34.395  0.00  0.00    +0.292 HD
ENDBRANCH  15  18
ENDBRANCH  11  12
ENDBRANCH   1  11
TORSDOF 7
REMARK  Name = ../refined-set-2016/4o2c/4o2c_pocket.pdb
REMARK  351 active torsions:
REMARK  status: ('A' for Active; 'I' for Inactive)
REMARK    1  A    between atoms: _1  and  _3
REMARK    2  A    between atoms: _3  and  _4
REMARK    3  A    between atoms: _3  and  _6
REMARK    4  A    between atoms: _6  and  _7
REMARK    5  A    between atoms: _7  and  _8
REMARK    6  A    between atoms: _10  and  _12
REMARK    7  A    between atoms: _12  and  _13
REMARK    8  A    between atoms: _12  and  _15
REMARK    9  A    between atoms: _15  and  _16
REMARK   10  A    between atoms: _16  and  _17
REMARK   11  A    between atoms: _17  and  _18
REMARK   12  A    between atoms: _27  and  _29
REMARK   13  A    between atoms: _29  and  _30
REMARK   14  A    between atoms: _29  and  _32
REMARK   15  A    between atoms: _32  and  _33
REMARK   16  A    between atoms: _38  and  _39
REMARK   17  A    between atoms: _41  and  _43
REMARK   18  A    between atoms: _43  and  _44
REMARK   19  A    between atoms: _43  and  _46
REMARK   20  A    between atoms: _46  and  _47
REMARK   21  A    between atoms: _53  and  _55
REMARK   22  A    between atoms: _55  and  _56
REMARK   23  A    between atoms: _55  and  _58
REMARK   24  A    between atoms: _58  and  _59
REMARK   25  A    between atoms: _64  and  _65
REMARK   26  A    between atoms: _67  and  _69
REMARK   27  A    between atoms: _69  and  _70
REMARK   28  A    between atoms: _69  and  _72
REMARK   29  A    between atoms: _72  and  _73
REMARK   30  A    between atoms: _79  and  _81
REMARK   31  A    between atoms: _81  and  _82
REMARK   32  A    between atoms: _81  and  _84
REMARK   33  A    between atoms: _84  and  _85
REMARK   34  A    between atoms: _88  and  _90
REMARK   35  A    between atoms: _90  and  _91
REMARK   36  A    between atoms: _90  and  _93
REMARK   37  A    between atoms: _93  and  _94
REMARK   38  A    between atoms: _96  and  _98
REMARK   39  A    between atoms: _98  and  _99
REMARK   40  A    between atoms: _98  and  _101
REMARK   41  A    between atoms: _104  and  _106
REMARK   42  A    between atoms: _106  and  _107
REMARK   43  A    between atoms: _109  and  _111
REMARK   44  A    between atoms: _111  and  _112
REMARK   45  A    between atoms: _111  and  _114
REMARK   46  A    between atoms: _114  and  _115
REMARK   47  A    between atoms: _121  and  _123
REMARK   48  A    between atoms: _123  and  _124
REMARK   49  A    between atoms: _123  and  _126
REMARK   50  A    between atoms: _129  and  _131
REMARK   51  A    between atoms: _131  and  _132
REMARK   52  A    between atoms: _131  and  _134
REMARK   53  A    between atoms: _134  and  _135
REMARK   54  A    between atoms: _135  and  _136
REMARK   55  A    between atoms: _136  and  _137
REMARK   56  A    between atoms: _146  and  _148
REMARK   57  A    between atoms: _148  and  _149
REMARK   58  A    between atoms: _148  and  _151
REMARK   59  A    between atoms: _151  and  _152
REMARK   60  A    between atoms: _158  and  _160
REMARK   61  A    between atoms: _160  and  _161
REMARK   62  A    between atoms: _160  and  _163
REMARK   63  A    between atoms: _163  and  _164
REMARK   64  A    between atoms: _164  and  _165
REMARK   65  A    between atoms: _168  and  _170
REMARK   66  A    between atoms: _170  and  _171
REMARK   67  A    between atoms: _170  and  _173
REMARK   68  A    between atoms: _173  and  _174
REMARK   69  A    between atoms: _174  and  _175
REMARK   70  A    between atoms: _178  and  _180
REMARK   71  A    between atoms: _180  and  _181
REMARK   72  A    between atoms: _180  and  _183
REMARK   73  A    between atoms: _183  and  _184
REMARK   74  A    between atoms: _187  and  _189
REMARK   75  A    between atoms: _189  and  _190
REMARK   76  A    between atoms: _189  and  _192
REMARK   77  A    between atoms: _192  and  _193
REMARK   78  A    between atoms: _193  and  _194
REMARK   79  A    between atoms: _197  and  _199
REMARK   80  A    between atoms: _199  and  _200
REMARK   81  A    between atoms: _199  and  _202
REMARK   82  A    between atoms: _202  and  _203
REMARK   83  A    between atoms: _203  and  _204
REMARK   84  A    between atoms: _207  and  _209
REMARK   85  A    between atoms: _209  and  _210
REMARK   86  A    between atoms: _209  and  _212
REMARK   87  A    between atoms: _212  and  _213
REMARK   88  A    between atoms: _218  and  _219
REMARK   89  A    between atoms: _221  and  _223
REMARK   90  A    between atoms: _223  and  _224
REMARK   91  A    between atoms: _223  and  _226
REMARK   92  A    between atoms: _226  and  _227
REMARK   93  A    between atoms: _237  and  _239
REMARK   94  A    between atoms: _239  and  _240
REMARK   95  A    between atoms: _239  and  _242
REMARK   96  A    between atoms: _242  and  _243
REMARK   97  A    between atoms: _246  and  _248
REMARK   98  A    between atoms: _248  and  _249
REMARK   99  A    between atoms: _248  and  _251
REMARK  100  A    between atoms: _251  and  _252
REMARK  101  A    between atoms: _252  and  _253
REMARK  102  A    between atoms: _253  and  _254
REMARK  103  A    between atoms: _263  and  _265
REMARK  104  A    between atoms: _265  and  _266
REMARK  105  A    between atoms: _265  and  _268
REMARK  106  A    between atoms: _268  and  _269
REMARK  107  A    between atoms: _274  and  _276
REMARK  108  A    between atoms: _276  and  _277
REMARK  109  A    between atoms: _276  and  _279
REMARK  110  A    between atoms: _279  and  _280
REMARK  111  A    between atoms: _283  and  _285
REMARK  112  A    between atoms: _285  and  _286
REMARK  113  A    between atoms: _285  and  _288
REMARK  114  A    between atoms: _288  and  _289
REMARK  115  A    between atoms: _289  and  _290
REMARK  116  A    between atoms: _295  and  _297
REMARK  117  A    between atoms: _297  and  _298
REMARK  118  A    between atoms: _297  and  _300
REMARK  119  A    between atoms: _300  and  _301
REMARK  120  A    between atoms: _304  and  _306
REMARK  121  A    between atoms: _306  and  _307
REMARK  122  A    between atoms: _306  and  _309
REMARK  123  A    between atoms: _311  and  _313
REMARK  124  A    between atoms: _313  and  _314
REMARK  125  A    between atoms: _313  and  _316
REMARK  126  A    between atoms: _316  and  _317
REMARK  127  A    between atoms: _320  and  _322
REMARK  128  A    between atoms: _322  and  _323
REMARK  129  A    between atoms: _322  and  _325
REMARK  130  A    between atoms: _325  and  _326
REMARK  131  A    between atoms: _331  and  _333
REMARK  132  A    between atoms: _333  and  _334
REMARK  133  A    between atoms: _333  and  _336
REMARK  134  A    between atoms: _336  and  _337
REMARK  135  A    between atoms: _337  and  _338
REMARK  136  A    between atoms: _343  and  _345
REMARK  137  A    between atoms: _345  and  _346
REMARK  138  A    between atoms: _345  and  _348
REMARK  139  A    between atoms: _348  and  _349
REMARK  140  A    between atoms: _352  and  _354
REMARK  141  A    between atoms: _354  and  _355
REMARK  142  A    between atoms: _354  and  _357
REMARK  143  A    between atoms: _357  and  _358
REMARK  144  A    between atoms: _361  and  _363
REMARK  145  A    between atoms: _363  and  _364
REMARK  146  A    between atoms: _363  and  _366
REMARK  147  A    between atoms: _366  and  _367
REMARK  148  A    between atoms: _367  and  _368
REMARK  149  A    between atoms: _368  and  _369
REMARK  150  A    between atoms: _378  and  _380
REMARK  151  A    between atoms: _380  and  _381
REMARK  152  A    between atoms: _380  and  _383
REMARK  153  A    between atoms: _383  and  _384
REMARK  154  A    between atoms: _384  and  _385
REMARK  155  A    between atoms: _388  and  _390
REMARK  156  A    between atoms: _390  and  _391
REMARK  157  A    between atoms: _390  and  _393
REMARK  158  A    between atoms: _393  and  _394
REMARK  159  A    between atoms: _396  and  _398
REMARK  160  A    between atoms: _398  and  _399
REMARK  161  A    between atoms: _398  and  _401
REMARK  162  A    between atoms: _401  and  _402
REMARK  163  A    between atoms: _405  and  _407
REMARK  164  A    between atoms: _407  and  _408
REMARK  165  A    between atoms: _407  and  _410
REMARK  166  A    between atoms: _410  and  _411
REMARK  167  A    between atoms: _411  and  _412
REMARK  168  A    between atoms: _412  and  _413
REMARK  169  A    between atoms: _422  and  _424
REMARK  170  A    between atoms: _424  and  _425
REMARK  171  A    between atoms: _424  and  _427
REMARK  172  A    between atoms: _427  and  _428
REMARK  173  A    between atoms: _433  and  _435
REMARK  174  A    between atoms: _435  and  _436
REMARK  175  A    between atoms: _435  and  _438
REMARK  176  A    between atoms: _438  and  _439
REMARK  177  A    between atoms: _442  and  _444
REMARK  178  A    between atoms: _444  and  _445
REMARK  179  A    between atoms: _444  and  _447
REMARK  180  A    between atoms: _447  and  _448
REMARK  181  A    between atoms: _453  and  _454
REMARK  182  A    between atoms: _456  and  _458
REMARK  183  A    between atoms: _458  and  _459
REMARK  184  A    between atoms: _458  and  _461
REMARK  185  A    between atoms: _461  and  _462
REMARK  186  A    between atoms: _465  and  _467
REMARK  187  A    between atoms: _467  and  _468
REMARK  188  A    between atoms: _467  and  _470
REMARK  189  A    between atoms: _470  and  _471
REMARK  190  A    between atoms: _471  and  _472
REMARK  191  A    between atoms: _477  and  _479
REMARK  192  A    between atoms: _479  and  _480
REMARK  193  A    between atoms: _479  and  _482
REMARK  194  A    between atoms: _482  and  _483
REMARK  195  A    between atoms: _483  and  _484
REMARK  196  A    between atoms: _484  and  _485
REMARK  197  A    between atoms: _494  and  _496
REMARK  198  A    between atoms: _496  and  _497
REMARK  199  A    between atoms: _496  and  _499
REMARK  200  A    between atoms: _499  and  _500
REMARK  201  A    between atoms: _505  and  _506
REMARK  202  A    between atoms: _508  and  _510
REMARK  203  A    between atoms: _510  and  _511
REMARK  204  A    between atoms: _513  and  _515
REMARK  205  A    between atoms: _515  and  _516
REMARK  206  A    between atoms: _515  and  _518
REMARK  207  A    between atoms: _518  and  _519
REMARK  208  A    between atoms: _524  and  _526
REMARK  209  A    between atoms: _526  and  _527
REMARK  210  A    between atoms: _526  and  _529
REMARK  211  A    between atoms: _529  and  _530
REMARK  212  A    between atoms: _530  and  _531
REMARK  213  A    between atoms: _536  and  _538
REMARK  214  A    between atoms: _538  and  _539
REMARK  215  A    between atoms: _538  and  _541
REMARK  216  A    between atoms: _541  and  _542
REMARK  217  A    between atoms: _548  and  _550
REMARK  218  A    between atoms: _550  and  _551
REMARK  219  A    between atoms: _554  and  _556
REMARK  220  A    between atoms: _556  and  _557
REMARK  221  A    between atoms: _556  and  _559
REMARK  222  A    between atoms: _559  and  _560
REMARK  223  A    between atoms: _565  and  _566
REMARK  224  A    between atoms: _568  and  _570
REMARK  225  A    between atoms: _570  and  _571
REMARK  226  A    between atoms: _570  and  _573
REMARK  227  A    between atoms: _573  and  _574
REMARK  228  A    between atoms: _579  and  _580
REMARK  229  A    between atoms: _582  and  _584
REMARK  230  A    between atoms: _584  and  _585
REMARK  231  A    between atoms: _584  and  _587
REMARK  232  A    between atoms: _587  and  _588
REMARK  233  A    between atoms: _591  and  _593
REMARK  234  A    between atoms: _593  and  _594
REMARK  235  A    between atoms: _593  and  _596
REMARK  236  A    between atoms: _596  and  _597
REMARK  237  A    between atoms: _607  and  _609
REMARK  238  A    between atoms: _609  and  _610
REMARK  239  A    between atoms: _613  and  _615
REMARK  240  A    between atoms: _615  and  _616
REMARK  241  A    between atoms: _619  and  _621
REMARK  242  A    between atoms: _621  and  _622
REMARK  243  A    between atoms: _621  and  _624
REMARK  244  A    between atoms: _624  and  _625
REMARK  245  A    between atoms: _625  and  _626
REMARK  246  A    between atoms: _631  and  _633
REMARK  247  A    between atoms: _633  and  _634
REMARK  248  A    between atoms: _633  and  _636
REMARK  249  A    between atoms: _636  and  _637
REMARK  250  A    between atoms: _640  and  _642
REMARK  251  A    between atoms: _642  and  _643
REMARK  252  A    between atoms: _642  and  _645
REMARK  253  A    between atoms: _645  and  _646
REMARK  254  A    between atoms: _649  and  _651
REMARK  255  A    between atoms: _651  and  _652
REMARK  256  A    between atoms: _651  and  _654
REMARK  257  A    between atoms: _654  and  _655
REMARK  258  A    between atoms: _655  and  _656
REMARK  259  A    between atoms: _661  and  _663
REMARK  260  A    between atoms: _663  and  _664
REMARK  261  A    between atoms: _663  and  _666
REMARK  262  A    between atoms: _666  and  _667
REMARK  263  A    between atoms: _667  and  _668
REMARK  264  A    between atoms: _668  and  _669
REMARK  265  A    between atoms: _678  and  _680
REMARK  266  A    between atoms: _680  and  _681
REMARK  267  A    between atoms: _680  and  _683
REMARK  268  A    between atoms: _683  and  _684
REMARK  269  A    between atoms: _684  and  _685
REMARK  270  A    between atoms: _685  and  _686
REMARK  271  A    between atoms: _686  and  _687
REMARK  272  A    between atoms: _691  and  _693
REMARK  273  A    between atoms: _693  and  _694
REMARK  274  A    between atoms: _693  and  _696
REMARK  275  A    between atoms: _696  and  _697
REMARK  276  A    between atoms: _707  and  _709
REMARK  277  A    between atoms: _709  and  _710
REMARK  278  A    between atoms: _713  and  _715
REMARK  279  A    between atoms: _715  and  _716
REMARK  280  A    between atoms: _719  and  _721
REMARK  281  A    between atoms: _721  and  _722
REMARK  282  A    between atoms: _721  and  _724
REMARK  283  A    between atoms: _724  and  _725
REMARK  284  A    between atoms: _725  and  _726
REMARK  285  A    between atoms: _726  and  _727
REMARK  286  A    between atoms: _736  and  _738
REMARK  287  A    between atoms: _738  and  _739
REMARK  288  A    between atoms: _738  and  _741
REMARK  289  A    between atoms: _744  and  _746
REMARK  290  A    between atoms: _746  and  _747
REMARK  291  A    between atoms: _750  and  _752
REMARK  292  A    between atoms: _752  and  _753
REMARK  293  A    between atoms: _752  and  _755
REMARK  294  A    between atoms: _755  and  _756
REMARK  295  A    between atoms: _756  and  _757
REMARK  296  A    between atoms: _760  and  _762
REMARK  297  A    between atoms: _762  and  _763
REMARK  298  A    between atoms: _762  and  _765
REMARK  299  A    between atoms: _765  and  _766
REMARK  300  A    between atoms: _766  and  _767
REMARK  301  A    between atoms: _772  and  _774
REMARK  302  A    between atoms: _774  and  _775
REMARK  303  A    between atoms: _774  and  _777
REMARK  304  A    between atoms: _777  and  _778
REMARK  305  A    between atoms: _781  and  _783
REMARK  306  A    between atoms: _783  and  _784
REMARK  307  A    between atoms: _783  and  _786
REMARK  308  A    between atoms: _786  and  _787
REMARK  309  A    between atoms: _787  and  _788
REMARK  310  A    between atoms: _788  and  _789
REMARK  311  A    between atoms: _798  and  _800
REMARK  312  A    between atoms: _800  and  _801
REMARK  313  A    between atoms: _800  and  _803
REMARK  314  A    between atoms: _803  and  _804
REMARK  315  A    between atoms: _807  and  _809
REMARK  316  A    between atoms: _809  and  _810
REMARK  317  A    between atoms: _809  and  _812
REMARK  318  A    between atoms: _812  and  _813
REMARK  319  A    between atoms: _818  and  _819
REMARK  320  A    between atoms: _821  and  _823
REMARK  321  A    between atoms: _823  and  _824
REMARK  322  A    between atoms: _823  and  _826
REMARK  323  A    between atoms: _826  and  _827
REMARK  324  A    between atoms: _830  and  _832
REMARK  325  A    between atoms: _832  and  _833
REMARK  326  A    between atoms: _832  and  _835
REMARK  327  A    between atoms: _835  and  _836
REMARK  328  A    between atoms: _839  and  _841
REMARK  329  A    between atoms: _841  and  _842
REMARK  330  A    between atoms: _841  and  _844
REMARK  331  A    between atoms: _846  and  _848
REMARK  332  A    between atoms: _848  and  _849
REMARK  333  A    between atoms: _848  and  _851
REMARK  334  A    between atoms: _854  and  _856
REMARK  335  A    between atoms: _856  and  _857
REMARK  336  A    between atoms: _856  and  _859
REMARK  337  A    between atoms: _859  and  _860
REMARK  338  A    between atoms: _860  and  _861
REMARK  339  A    between atoms: _864  and  _866
REMARK  340  A    between atoms: _866  and  _867
REMARK  341  A    between atoms: _866  and  _869
REMARK  342  A    between atoms: _869  and  _870
REMARK  343  A    between atoms: _880  and  _882
REMARK  344  A    between atoms: _882  and  _883
REMARK  345  A    between atoms: _882  and  _885
REMARK  346  A    between atoms: _885  and  _886
REMARK  347  A    between atoms: _889  and  _891
REMARK  348  A    between atoms: _891  and  _892
REMARK  349  A    between atoms: _891  and  _894
REMARK  350  A    between atoms: _894  and  _895
REMARK  351  A    between atoms: _900  and  _901
REMARK                            x       y       z     vdW  Elec       q    Type
REMARK                         _______ _______ _______ _____ _____    ______ ____
ROOT
ATOM      1  CA  PHE A   3      -1.782  14.384  24.581  0.00  0.00    +0.153 C 
ENDROOT
BRANCH   1   2
ATOM      2  C   PHE A   3      -2.285  14.150  23.169  0.00  0.00    +0.241 C 
ATOM      3  N   ALA A   4      -2.224  12.897  22.733  0.00  0.00    -0.297 N 
ATOM      4  H   ALA A   4      -1.747  12.181  23.318  0.00  0.00    +0.150 HD
ATOM      5  O   PHE A   3      -2.732  15.080  22.495  0.00  0.00    -0.273 OA
BRANCH   3   6
ATOM      6  CA  ALA A   4      -2.805  12.497  21.462  0.00  0.00    +0.149 C 
ATOM      7  CB  ALA A   4      -1.718  12.289  20.420  0.00  0.00    +0.031 C 
BRANCH   6   8
ATOM      8  C   ALA A   4      -3.607  11.220  21.656  0.00  0.00    +0.241 C 
ATOM      9  O   ALA A   4      -3.223  10.352  22.435  0.00  0.00    -0.273 OA
ATOM     10  N   TYR A   5      -4.727  11.121  20.951  0.00  0.00    -0.298 N 
ATOM     11  H   TYR A   5      -5.021  11.921  20.356  0.00  0.00    +0.150 HD
BRANCH  10  12
ATOM     12  CA  TYR A   5      -5.556   9.924  20.987  0.00  0.00    +0.141 C 
BRANCH  12  13
ATOM     13  C   TYR A   5      -5.629   9.335  19.584  0.00  0.00    +0.227 C 
ATOM     14  O   TYR A   5      -5.974  10.031  18.625  0.00  0.00    -0.286 OA
ENDBRANCH  12  13
BRANCH  12  15
ATOM     15  CB  TYR A   5      -6.953  10.257  21.517  0.00  0.00    +0.054 C 
BRANCH  15  16
ATOM     16  CG  TYR A   5      -7.872   9.063  21.656  0.00  0.00    -0.020 A 
ATOM     17  CD2 TYR A   5      -7.533   7.992  22.473  0.00  0.00    -0.001 A 
ATOM     18  CE2 TYR A   5      -8.376   6.900  22.610  0.00  0.00    +0.036 A 
ATOM     19  CZ  TYR A   5      -9.578   6.877  21.932  0.00  0.00    +0.134 A 
ATOM     20  CE1 TYR A   5      -9.938   7.932  21.119  0.00  0.00    +0.036 A 
ATOM     21  CD1 TYR A   5      -9.088   9.018  20.988  0.00  0.00    -0.001 A 
BRANCH  19  22
ATOM     22  OH  TYR A   5     -10.418   5.794  22.061  0.00  0.00    -0.506 OA
ATOM     23  HH  TYR A   5     -10.011   5.134  22.676  0.00  0.00    +0.292 HD
ENDBRANCH  19  22
ENDBRANCH  15  16
ENDBRANCH  12  15
ENDBRANCH  10  12
ENDBRANCH   6   8
ENDBRANCH   3   6
ENDBRANCH   1   2
BRANCH   1  26
ATOM     24  C   GLN A   2      -0.076  15.971  25.333  0.00  0.00    +0.241 C 
ATOM     25  O   GLN A   2       0.717  15.092  25.681  0.00  0.00    -0.273 OA
ATOM     26  N   PHE A   3      -1.238  15.726  24.736  0.00  0.00    -0.297 N 
ATOM     27  H   PHE A   3      -1.783  16.529  24.363  0.00  0.00    +0.150 HD
BRANCH  24  28
ATOM     28  CA  GLN A   2       0.233  17.444  25.561  0.00  0.00    +0.149 C 
BRANCH  28  31
ATOM     29  C   ASN A   1       1.149  18.700  27.405  0.00  0.00    +0.239 C 
ATOM     30  O   ASN A   1       0.164  19.437  27.418  0.00  0.00    -0.274 OA
ATOM     31  N   GLN A   2       1.266  17.680  26.564  0.00  0.00    -0.297 N 
ATOM     32  H   GLN A   2       2.092  17.050  26.620  0.00  0.00    +0.150 HD
BRANCH  29  33
ATOM     33  CA  ASN A   1       2.300  18.934  28.370  0.00  0.00    +0.154 C 
BRANCH  33  34
ATOM     34  N   ASN A   1       3.184  19.976  27.855  0.00  0.00    -0.238 NA
ATOM     35  H   ASN A   1       2.843  20.594  27.091  0.00  0.00    +0.142 HD
ENDBRANCH  33  34
BRANCH  33  36
ATOM     36  CB  ASN A   1       1.753  19.303  29.751  0.00  0.00    +0.111 C 
BRANCH  36  37
ATOM     37  CG  ASN A   1       0.896  18.201  30.350  0.00  0.00    +0.221 C 
ATOM     38  ND2 ASN A   1      -0.332  18.538  30.721  0.00  0.00    -0.329 N 
ATOM     39 HD21 ASN A   1      -0.964  17.824  31.137  0.00  0.00    +0.145 HD
ATOM     40 HD22 ASN A   1      -0.663  19.516  30.596  0.00  0.00    +0.145 HD
ATOM     41  OD1 ASN A   1       1.334  17.061  30.477  0.00  0.00    -0.275 OA
ENDBRANCH  36  37
ENDBRANCH  33  36
ENDBRANCH  29  33
ENDBRANCH  28  31
BRANCH  28  42
ATOM     42  CB  GLN A   2       0.580  18.138  24.242  0.00  0.00    +0.039 C 
BRANCH  42  43
ATOM     43  CG  GLN A   2       1.945  17.791  23.683  0.00  0.00    +0.087 C 
BRANCH  43  44
ATOM     44  CD  GLN A   2       2.297  18.632  22.470  0.00  0.00    +0.219 C 
ATOM     45  OE1 GLN A   2       3.420  19.121  22.345  0.00  0.00    -0.275 OA
ATOM     46  NE2 GLN A   2       1.334  18.813  21.574  0.00  0.00    -0.329 N 
ATOM     47 HE21 GLN A   2       0.400  18.381  21.720  0.00  0.00    +0.145 HD
ATOM     48 HE22 GLN A   2       1.514  19.387  20.726  0.00  0.00    +0.145 HD
ENDBRANCH  43  44
ENDBRANCH  42  43
ENDBRANCH  28  42
ENDBRANCH  24  28
ENDBRANCH   1  26
BRANCH   1  49
ATOM     49  CB  PHE A   3      -2.962  14.184  25.534  0.00  0.00    +0.055 C 
BRANCH  49  50
ATOM     50  CG  PHE A   3      -2.594  14.238  26.984  0.00  0.00    -0.020 A 
ATOM     51  CD2 PHE A   3      -2.450  13.072  27.716  0.00  0.00    -0.004 A 
ATOM     52  CE2 PHE A   3      -2.123  13.114  29.057  0.00  0.00    -0.000 A 
ATOM     53  CZ  PHE A   3      -1.943  14.332  29.685  0.00  0.00    -0.000 A 
ATOM     54  CE1 PHE A   3      -2.087  15.505  28.965  0.00  0.00    -0.000 A 
ATOM     55  CD1 PHE A   3      -2.418  15.454  27.625  0.00  0.00    -0.004 A 
ENDBRANCH  49  50
ENDBRANCH   1  49
TORSDOF 20
REMARK  Name = ../refined-set-2016/4o2c/4o2c_pocket.pdb
REMARK  351 active torsions:
REMARK  status: ('A' for Active; 'I' for Inactive)
REMARK    1  A    between atoms: _1  and  _3
REMARK    2  A    between atoms: _3  and  _4
REMARK    3  A    between atoms: _3  and  _6
REMARK    4  A    between atoms: _6  and  _7
REMARK    5  A    between atoms: _7  and  _8
REMARK    6  A    between atoms: _10  and  _12
REMARK    7  A    between atoms: _12  and  _13
REMARK    8  A    between atoms: _12  and  _15
REMARK    9  A    between atoms: _15  and  _16
REMARK   10  A    between atoms: _16  and  _17
REMARK   11  A    between atoms: _17  and  _18
REMARK   12  A    between atoms: _27  and  _29
REMARK   13  A    between atoms: _29  and  _30
REMARK   14  A    between atoms: _29  and  _32
REMARK   15  A    between atoms: _32  and  _33
REMARK   16  A    between atoms: _38  and  _39
REMARK   17  A    between atoms: _41  and  _43
REMARK   18  A    between atoms: _43  and  _44
REMARK   19  A    between atoms: _43  and  _46
REMARK   20  A    between atoms: _46  and  _47
REMARK   21  A    between atoms: _53  and  _55
REMARK   22  A    between atoms: _55  and  _56
REMARK   23  A    between atoms: _55  and  _58
REMARK   24  A    between atoms: _58  and  _59
REMARK   25  A    between atoms: _64  and  _65
REMARK   26  A    between atoms: _67  and  _69
REMARK   27  A    between atoms: _69  and  _70
REMARK   28  A    between atoms: _69  and  _72
REMARK   29  A    between atoms: _72  and  _73
REMARK   30  A    between atoms: _79  and  _81
REMARK   31  A    between atoms: _81  and  _82
REMARK   32  A    between atoms: _81  and  _84
REMARK   33  A    between atoms: _84  and  _85
REMARK   34  A    between atoms: _88  and  _90
REMARK   35  A    between atoms: _90  and  _91
REMARK   36  A    between atoms: _90  and  _93
REMARK   37  A    between atoms: _93  and  _94
REMARK   38  A    between atoms: _96  and  _98
REMARK   39  A    between atoms: _98  and  _99
REMARK   40  A    between atoms: _98  and  _101
REMARK   41  A    between atoms: _104  and  _106
REMARK   42  A    between atoms: _106  and  _107
REMARK   43  A    between atoms: _109  and  _111
REMARK   44  A    between atoms: _111  and  _112
REMARK   45  A    between atoms: _111  and  _114
REMARK   46  A    between atoms: _114  and  _115
REMARK   47  A    between atoms: _121  and  _123
REMARK   48  A    between atoms: _123  and  _124
REMARK   49  A    between atoms: _123  and  _126
REMARK   50  A    between atoms: _129  and  _131
REMARK   51  A    between atoms: _131  and  _132
REMARK   52  A    between atoms: _131  and  _134
REMARK   53  A    between atoms: _134  and  _135
REMARK   54  A    between atoms: _135  and  _136
REMARK   55  A    between atoms: _136  and  _137
REMARK   56  A    between atoms: _146  and  _148
REMARK   57  A    between atoms: _148  and  _149
REMARK   58  A    between atoms: _148  and  _151
REMARK   59  A    between atoms: _151  and  _152
REMARK   60  A    between atoms: _158  and  _160
REMARK   61  A    between atoms: _160  and  _161
REMARK   62  A    between atoms: _160  and  _163
REMARK   63  A    between atoms: _163  and  _164
REMARK   64  A    between atoms: _164  and  _165
REMARK   65  A    between atoms: _168  and  _170
REMARK   66  A    between atoms: _170  and  _171
REMARK   67  A    between atoms: _170  and  _173
REMARK   68  A    between atoms: _173  and  _174
REMARK   69  A    between atoms: _174  and  _175
REMARK   70  A    between atoms: _178  and  _180
REMARK   71  A    between atoms: _180  and  _181
REMARK   72  A    between atoms: _180  and  _183
REMARK   73  A    between atoms: _183  and  _184
REMARK   74  A    between atoms: _187  and  _189
REMARK   75  A    between atoms: _189  and  _190
REMARK   76  A    between atoms: _189  and  _192
REMARK   77  A    between atoms: _192  and  _193
REMARK   78  A    between atoms: _193  and  _194
REMARK   79  A    between atoms: _197  and  _199
REMARK   80  A    between atoms: _199  and  _200
REMARK   81  A    between atoms: _199  and  _202
REMARK   82  A    between atoms: _202  and  _203
REMARK   83  A    between atoms: _203  and  _204
REMARK   84  A    between atoms: _207  and  _209
REMARK   85  A    between atoms: _209  and  _210
REMARK   86  A    between atoms: _209  and  _212
REMARK   87  A    between atoms: _212  and  _213
REMARK   88  A    between atoms: _218  and  _219
REMARK   89  A    between atoms: _221  and  _223
REMARK   90  A    between atoms: _223  and  _224
REMARK   91  A    between atoms: _223  and  _226
REMARK   92  A    between atoms: _226  and  _227
REMARK   93  A    between atoms: _237  and  _239
REMARK   94  A    between atoms: _239  and  _240
REMARK   95  A    between atoms: _239  and  _242
REMARK   96  A    between atoms: _242  and  _243
REMARK   97  A    between atoms: _246  and  _248
REMARK   98  A    between atoms: _248  and  _249
REMARK   99  A    between atoms: _248  and  _251
REMARK  100  A    between atoms: _251  and  _252
REMARK  101  A    between atoms: _252  and  _253
REMARK  102  A    between atoms: _253  and  _254
REMARK  103  A    between atoms: _263  and  _265
REMARK  104  A    between atoms: _265  and  _266
REMARK  105  A    between atoms: _265  and  _268
REMARK  106  A    between atoms: _268  and  _269
REMARK  107  A    between atoms: _274  and  _276
REMARK  108  A    between atoms: _276  and  _277
REMARK  109  A    between atoms: _276  and  _279
REMARK  110  A    between atoms: _279  and  _280
REMARK  111  A    between atoms: _283  and  _285
REMARK  112  A    between atoms: _285  and  _286
REMARK  113  A    between atoms: _285  and  _288
REMARK  114  A    between atoms: _288  and  _289
REMARK  115  A    between atoms: _289  and  _290
REMARK  116  A    between atoms: _295  and  _297
REMARK  117  A    between atoms: _297  and  _298
REMARK  118  A    between atoms: _297  and  _300
REMARK  119  A    between atoms: _300  and  _301
REMARK  120  A    between atoms: _304  and  _306
REMARK  121  A    between atoms: _306  and  _307
REMARK  122  A    between atoms: _306  and  _309
REMARK  123  A    between atoms: _311  and  _313
REMARK  124  A    between atoms: _313  and  _314
REMARK  125  A    between atoms: _313  and  _316
REMARK  126  A    between atoms: _316  and  _317
REMARK  127  A    between atoms: _320  and  _322
REMARK  128  A    between atoms: _322  and  _323
REMARK  129  A    between atoms: _322  and  _325
REMARK  130  A    between atoms: _325  and  _326
REMARK  131  A    between atoms: _331  and  _333
REMARK  132  A    between atoms: _333  and  _334
REMARK  133  A    between atoms: _333  and  _336
REMARK  134  A    between atoms: _336  and  _337
REMARK  135  A    between atoms: _337  and  _338
REMARK  136  A    between atoms: _343  and  _345
REMARK  137  A    between atoms: _345  and  _346
REMARK  138  A    between atoms: _345  and  _348
REMARK  139  A    between atoms: _348  and  _349
REMARK  140  A    between atoms: _352  and  _354
REMARK  141  A    between atoms: _354  and  _355
REMARK  142  A    between atoms: _354  and  _357
REMARK  143  A    between atoms: _357  and  _358
REMARK  144  A    between atoms: _361  and  _363
REMARK  145  A    between atoms: _363  and  _364
REMARK  146  A    between atoms: _363  and  _366
REMARK  147  A    between atoms: _366  and  _367
REMARK  148  A    between atoms: _367  and  _368
REMARK  149  A    between atoms: _368  and  _369
REMARK  150  A    between atoms: _378  and  _380
REMARK  151  A    between atoms: _380  and  _381
REMARK  152  A    between atoms: _380  and  _383
REMARK  153  A    between atoms: _383  and  _384
REMARK  154  A    between atoms: _384  and  _385
REMARK  155  A    between atoms: _388  and  _390
REMARK  156  A    between atoms: _390  and  _391
REMARK  157  A    between atoms: _390  and  _393
REMARK  158  A    between atoms: _393  and  _394
REMARK  159  A    between atoms: _396  and  _398
REMARK  160  A    between atoms: _398  and  _399
REMARK  161  A    between atoms: _398  and  _401
REMARK  162  A    between atoms: _401  and  _402
REMARK  163  A    between atoms: _405  and  _407
REMARK  164  A    between atoms: _407  and  _408
REMARK  165  A    between atoms: _407  and  _410
REMARK  166  A    between atoms: _410  and  _411
REMARK  167  A    between atoms: _411  and  _412
REMARK  168  A    between atoms: _412  and  _413
REMARK  169  A    between atoms: _422  and  _424
REMARK  170  A    between atoms: _424  and  _425
REMARK  171  A    between atoms: _424  and  _427
REMARK  172  A    between atoms: _427  and  _428
REMARK  173  A    between atoms: _433  and  _435
REMARK  174  A    between atoms: _435  and  _436
REMARK  175  A    between atoms: _435  and  _438
REMARK  176  A    between atoms: _438  and  _439
REMARK  177  A    between atoms: _442  and  _444
REMARK  178  A    between atoms: _444  and  _445
REMARK  179  A    between atoms: _444  and  _447
REMARK  180  A    between atoms: _447  and  _448
REMARK  181  A    between atoms: _453  and  _454
REMARK  182  A    between atoms: _456  and  _458
REMARK  183  A    between atoms: _458  and  _459
REMARK  184  A    between atoms: _458  and  _461
REMARK  185  A    between atoms: _461  and  _462
REMARK  186  A    between atoms: _465  and  _467
REMARK  187  A    between atoms: _467  and  _468
REMARK  188  A    between atoms: _467  and  _470
REMARK  189  A    between atoms: _470  and  _471
REMARK  190  A    between atoms: _471  and  _472
REMARK  191  A    between atoms: _477  and  _479
REMARK  192  A    between atoms: _479  and  _480
REMARK  193  A    between atoms: _479  and  _482
REMARK  194  A    between atoms: _482  and  _483
REMARK  195  A    between atoms: _483  and  _484
REMARK  196  A    between atoms: _484  and  _485
REMARK  197  A    between atoms: _494  and  _496
REMARK  198  A    between atoms: _496  and  _497
REMARK  199  A    between atoms: _496  and  _499
REMARK  200  A    between atoms: _499  and  _500
REMARK  201  A    between atoms: _505  and  _506
REMARK  202  A    between atoms: _508  and  _510
REMARK  203  A    between atoms: _510  and  _511
REMARK  204  A    between atoms: _513  and  _515
REMARK  205  A    between atoms: _515  and  _516
REMARK  206  A    between atoms: _515  and  _518
REMARK  207  A    between atoms: _518  and  _519
REMARK  208  A    between atoms: _524  and  _526
REMARK  209  A    between atoms: _526  and  _527
REMARK  210  A    between atoms: _526  and  _529
REMARK  211  A    between atoms: _529  and  _530
REMARK  212  A    between atoms: _530  and  _531
REMARK  213  A    between atoms: _536  and  _538
REMARK  214  A    between atoms: _538  and  _539
REMARK  215  A    between atoms: _538  and  _541
REMARK  216  A    between atoms: _541  and  _542
REMARK  217  A    between atoms: _548  and  _550
REMARK  218  A    between atoms: _550  and  _551
REMARK  219  A    between atoms: _554  and  _556
REMARK  220  A    between atoms: _556  and  _557
REMARK  221  A    between atoms: _556  and  _559
REMARK  222  A    between atoms: _559  and  _560
REMARK  223  A    between atoms: _565  and  _566
REMARK  224  A    between atoms: _568  and  _570
REMARK  225  A    between atoms: _570  and  _571
REMARK  226  A    between atoms: _570  and  _573
REMARK  227  A    between atoms: _573  and  _574
REMARK  228  A    between atoms: _579  and  _580
REMARK  229  A    between atoms: _582  and  _584
REMARK  230  A    between atoms: _584  and  _585
REMARK  231  A    between atoms: _584  and  _587
REMARK  232  A    between atoms: _587  and  _588
REMARK  233  A    between atoms: _591  and  _593
REMARK  234  A    between atoms: _593  and  _594
REMARK  235  A    between atoms: _593  and  _596
REMARK  236  A    between atoms: _596  and  _597
REMARK  237  A    between atoms: _607  and  _609
REMARK  238  A    between atoms: _609  and  _610
REMARK  239  A    between atoms: _613  and  _615
REMARK  240  A    between atoms: _615  and  _616
REMARK  241  A    between atoms: _619  and  _621
REMARK  242  A    between atoms: _621  and  _622
REMARK  243  A    between atoms: _621  and  _624
REMARK  244  A    between atoms: _624  and  _625
REMARK  245  A    between atoms: _625  and  _626
REMARK  246  A    between atoms: _631  and  _633
REMARK  247  A    between atoms: _633  and  _634
REMARK  248  A    between atoms: _633  and  _636
REMARK  249  A    between atoms: _636  and  _637
REMARK  250  A    between atoms: _640  and  _642
REMARK  251  A    between atoms: _642  and  _643
REMARK  252  A    between atoms: _642  and  _645
REMARK  253  A    between atoms: _645  and  _646
REMARK  254  A    between atoms: _649  and  _651
REMARK  255  A    between atoms: _651  and  _652
REMARK  256  A    between atoms: _651  and  _654
REMARK  257  A    between atoms: _654  and  _655
REMARK  258  A    between atoms: _655  and  _656
REMARK  259  A    between atoms: _661  and  _663
REMARK  260  A    between atoms: _663  and  _664
REMARK  261  A    between atoms: _663  and  _666
REMARK  262  A    between atoms: _666  and  _667
REMARK  263  A    between atoms: _667  and  _668
REMARK  264  A    between atoms: _668  and  _669
REMARK  265  A    between atoms: _678  and  _680
REMARK  266  A    between atoms: _680  and  _681
REMARK  267  A    between atoms: _680  and  _683
REMARK  268  A    between atoms: _683  and  _684
REMARK  269  A    between atoms: _684  and  _685
REMARK  270  A    between atoms: _685  and  _686
REMARK  271  A    between atoms: _686  and  _687
REMARK  272  A    between atoms: _691  and  _693
REMARK  273  A    between atoms: _693  and  _694
REMARK  274  A    between atoms: _693  and  _696
REMARK  275  A    between atoms: _696  and  _697
REMARK  276  A    between atoms: _707  and  _709
REMARK  277  A    between atoms: _709  and  _710
REMARK  278  A    between atoms: _713  and  _715
REMARK  279  A    between atoms: _715  and  _716
REMARK  280  A    between atoms: _719  and  _721
REMARK  281  A    between atoms: _721  and  _722
REMARK  282  A    between atoms: _721  and  _724
REMARK  283  A    between atoms: _724  and  _725
REMARK  284  A    between atoms: _725  and  _726
REMARK  285  A    between atoms: _726  and  _727
REMARK  286  A    between atoms: _736  and  _738
REMARK  287  A    between atoms: _738  and  _739
REMARK  288  A    between atoms: _738  and  _741
REMARK  289  A    between atoms: _744  and  _746
REMARK  290  A    between atoms: _746  and  _747
REMARK  291  A    between atoms: _750  and  _752
REMARK  292  A    between atoms: _752  and  _753
REMARK  293  A    between atoms: _752  and  _755
REMARK  294  A    between atoms: _755  and  _756
REMARK  295  A    between atoms: _756  and  _757
REMARK  296  A    between atoms: _760  and  _762
REMARK  297  A    between atoms: _762  and  _763
REMARK  298  A    between atoms: _762  and  _765
REMARK  299  A    between atoms: _765  and  _766
REMARK  300  A    between atoms: _766  and  _767
REMARK  301  A    between atoms: _772  and  _774
REMARK  302  A    between atoms: _774  and  _775
REMARK  303  A    between atoms: _774  and  _777
REMARK  304  A    between atoms: _777  and  _778
REMARK  305  A    between atoms: _781  and  _783
REMARK  306  A    between atoms: _783  and  _784
REMARK  307  A    between atoms: _783  and  _786
REMARK  308  A    between atoms: _786  and  _787
REMARK  309  A    between atoms: _787  and  _788
REMARK  310  A    between atoms: _788  and  _789
REMARK  311  A    between atoms: _798  and  _800
REMARK  312  A    between atoms: _800  and  _801
REMARK  313  A    between atoms: _800  and  _803
REMARK  314  A    between atoms: _803  and  _804
REMARK  315  A    between atoms: _807  and  _809
REMARK  316  A    between atoms: _809  and  _810
REMARK  317  A    between atoms: _809  and  _812
REMARK  318  A    between atoms: _812  and  _813
REMARK  319  A    between atoms: _818  and  _819
REMARK  320  A    between atoms: _821  and  _823
REMARK  321  A    between atoms: _823  and  _824
REMARK  322  A    between atoms: _823  and  _826
REMARK  323  A    between atoms: _826  and  _827
REMARK  324  A    between atoms: _830  and  _832
REMARK  325  A    between atoms: _832  and  _833
REMARK  326  A    between atoms: _832  and  _835
REMARK  327  A    between atoms: _835  and  _836
REMARK  328  A    between atoms: _839  and  _841
REMARK  329  A    between atoms: _841  and  _842
REMARK  330  A    between atoms: _841  and  _844
REMARK  331  A    between atoms: _846  and  _848
REMARK  332  A    between atoms: _848  and  _849
REMARK  333  A    between atoms: _848  and  _851
REMARK  334  A    between atoms: _854  and  _856
REMARK  335  A    between atoms: _856  and  _857
REMARK  336  A    between atoms: _856  and  _859
REMARK  337  A    between atoms: _859  and  _860
REMARK  338  A    between atoms: _860  and  _861
REMARK  339  A    between atoms: _864  and  _866
REMARK  340  A    between atoms: _866  and  _867
REMARK  341  A    between atoms: _866  and  _869
REMARK  342  A    between atoms: _869  and  _870
REMARK  343  A    between atoms: _880  and  _882
REMARK  344  A    between atoms: _882  and  _883
REMARK  345  A    between atoms: _882  and  _885
REMARK  346  A    between atoms: _885  and  _886
REMARK  347  A    between atoms: _889  and  _891
REMARK  348  A    between atoms: _891  and  _892
REMARK  349  A    between atoms: _891  and  _894
REMARK  350  A    between atoms: _894  and  _895
REMARK  351  A    between atoms: _900  and  _901
REMARK                            x       y       z     vdW  Elec       q    Type
REMARK                         _______ _______ _______ _____ _____    ______ ____
ROOT
ATOM      1  CA  TYR A   1      -6.272  15.793  21.617  0.00  0.00    +0.149 C 
ENDROOT
BRANCH   1   2
ATOM      2  C   TYR A   1      -6.408  17.034  22.494  0.00  0.00    +0.239 C 
ATOM      3  N   ILE A   2      -5.462  17.214  23.409  0.00  0.00    -0.298 N 
ATOM      4  H   ILE A   2      -4.722  16.492  23.523  0.00  0.00    +0.150 HD
ATOM      5  O   TYR A   1      -7.354  17.808  22.347  0.00  0.00    -0.274 OA
BRANCH   3   6
ATOM      6  CA  ILE A   2      -5.436  18.400  24.257  0.00  0.00    +0.137 C 
BRANCH   6   7
ATOM      7  CB  ILE A   2      -6.261  18.199  25.550  0.00  0.00    +0.026 C 
ATOM      8  CG2 ILE A   2      -5.518  17.306  26.538  0.00  0.00    +0.002 C 
BRANCH   7   9
ATOM      9  CG1 ILE A   2      -6.623  19.549  26.179  0.00  0.00    +0.002 C 
ATOM     10  CD1 ILE A   2      -7.551  19.432  27.375  0.00  0.00    +0.000 C 
ENDBRANCH   7   9
ENDBRANCH   6   7
BRANCH   6  11
ATOM     11  C   ILE A   2      -3.994  18.769  24.595  0.00  0.00    +0.227 C 
ATOM     12  O   ILE A   2      -3.129  17.899  24.705  0.00  0.00    -0.286 OA
ENDBRANCH   6  11
ENDBRANCH   3   6
ENDBRANCH   1   2
BRANCH   1  13
ATOM     13  N   TYR A   1      -5.036  15.825  20.844  0.00  0.00    -0.238 NA
ATOM     14  H   TYR A   1      -4.125  15.805  21.346  0.00  0.00    +0.142 HD
ENDBRANCH   1  13
BRANCH   1  15
ATOM     15  CB  TYR A   1      -6.325  14.520  22.469  0.00  0.00    +0.053 C 
BRANCH  15  16
ATOM     16  CG  TYR A   1      -7.576  14.389  23.310  0.00  0.00    -0.020 A 
ATOM     17  CD2 TYR A   1      -7.567  14.718  24.660  0.00  0.00    -0.001 A 
ATOM     18  CE2 TYR A   1      -8.710  14.600  25.433  0.00  0.00    +0.036 A 
ATOM     19  CZ  TYR A   1      -9.879  14.148  24.856  0.00  0.00    +0.134 A 
ATOM     20  CE1 TYR A   1      -9.912  13.812  23.518  0.00  0.00    +0.036 A 
ATOM     21  CD1 TYR A   1      -8.764  13.933  22.754  0.00  0.00    -0.001 A 
BRANCH  19  22
ATOM     22  OH  TYR A   1     -11.021  14.027  25.618  0.00  0.00    -0.506 OA
ATOM     23  HH  TYR A   1     -11.263  14.912  25.990  0.00  0.00    +0.292 HD
ENDBRANCH  19  22
ENDBRANCH  15  16
ENDBRANCH   1  15
TORSDOF 9
REMARK  Name = ../refined-set-2016/4o2c/4o2c_pocket.pdb
REMARK  351 active torsions:
REMARK  status: ('A' for Active; 'I' for Inactive)
REMARK    1  A    between atoms: _1  and  _3
REMARK    2  A    between atoms: _3  and  _4
REMARK    3  A    between atoms: _3  and  _6
REMARK    4  A    between atoms: _6  and  _7
REMARK    5  A    between atoms: _7  and  _8
REMARK    6  A    between atoms: _10  and  _12
REMARK    7  A    between atoms: _12  and  _13
REMARK    8  A    between atoms: _12  and  _15
REMARK    9  A    between atoms: _15  and  _16
REMARK   10  A    between atoms: _16  and  _17
REMARK   11  A    between atoms: _17  and  _18
REMARK   12  A    between atoms: _27  and  _29
REMARK   13  A    between atoms: _29  and  _30
REMARK   14  A    between atoms: _29  and  _32
REMARK   15  A    between atoms: _32  and  _33
REMARK   16  A    between atoms: _38  and  _39
REMARK   17  A    between atoms: _41  and  _43
REMARK   18  A    between atoms: _43  and  _44
REMARK   19  A    between atoms: _43  and  _46
REMARK   20  A    between atoms: _46  and  _47
REMARK   21  A    between atoms: _53  and  _55
REMARK   22  A    between atoms: _55  and  _56
REMARK   23  A    between atoms: _55  and  _58
REMARK   24  A    between atoms: _58  and  _59
REMARK   25  A    between atoms: _64  and  _65
REMARK   26  A    between atoms: _67  and  _69
REMARK   27  A    between atoms: _69  and  _70
REMARK   28  A    between atoms: _69  and  _72
REMARK   29  A    between atoms: _72  and  _73
REMARK   30  A    between atoms: _79  and  _81
REMARK   31  A    between atoms: _81  and  _82
REMARK   32  A    between atoms: _81  and  _84
REMARK   33  A    between atoms: _84  and  _85
REMARK   34  A    between atoms: _88  and  _90
REMARK   35  A    between atoms: _90  and  _91
REMARK   36  A    between atoms: _90  and  _93
REMARK   37  A    between atoms: _93  and  _94
REMARK   38  A    between atoms: _96  and  _98
REMARK   39  A    between atoms: _98  and  _99
REMARK   40  A    between atoms: _98  and  _101
REMARK   41  A    between atoms: _104  and  _106
REMARK   42  A    between atoms: _106  and  _107
REMARK   43  A    between atoms: _109  and  _111
REMARK   44  A    between atoms: _111  and  _112
REMARK   45  A    between atoms: _111  and  _114
REMARK   46  A    between atoms: _114  and  _115
REMARK   47  A    between atoms: _121  and  _123
REMARK   48  A    between atoms: _123  and  _124
REMARK   49  A    between atoms: _123  and  _126
REMARK   50  A    between atoms: _129  and  _131
REMARK   51  A    between atoms: _131  and  _132
REMARK   52  A    between atoms: _131  and  _134
REMARK   53  A    between atoms: _134  and  _135
REMARK   54  A    between atoms: _135  and  _136
REMARK   55  A    between atoms: _136  and  _137
REMARK   56  A    between atoms: _146  and  _148
REMARK   57  A    between atoms: _148  and  _149
REMARK   58  A    between atoms: _148  and  _151
REMARK   59  A    between atoms: _151  and  _152
REMARK   60  A    between atoms: _158  and  _160
REMARK   61  A    between atoms: _160  and  _161
REMARK   62  A    between atoms: _160  and  _163
REMARK   63  A    between atoms: _163  and  _164
REMARK   64  A    between atoms: _164  and  _165
REMARK   65  A    between atoms: _168  and  _170
REMARK   66  A    between atoms: _170  and  _171
REMARK   67  A    between atoms: _170  and  _173
REMARK   68  A    between atoms: _173  and  _174
REMARK   69  A    between atoms: _174  and  _175
REMARK   70  A    between atoms: _178  and  _180
REMARK   71  A    between atoms: _180  and  _181
REMARK   72  A    between atoms: _180  and  _183
REMARK   73  A    between atoms: _183  and  _184
REMARK   74  A    between atoms: _187  and  _189
REMARK   75  A    between atoms: _189  and  _190
REMARK   76  A    between atoms: _189  and  _192
REMARK   77  A    between atoms: _192  and  _193
REMARK   78  A    between atoms: _193  and  _194
REMARK   79  A    between atoms: _197  and  _199
REMARK   80  A    between atoms: _199  and  _200
REMARK   81  A    between atoms: _199  and  _202
REMARK   82  A    between atoms: _202  and  _203
REMARK   83  A    between atoms: _203  and  _204
REMARK   84  A    between atoms: _207  and  _209
REMARK   85  A    between atoms: _209  and  _210
REMARK   86  A    between atoms: _209  and  _212
REMARK   87  A    between atoms: _212  and  _213
REMARK   88  A    between atoms: _218  and  _219
REMARK   89  A    between atoms: _221  and  _223
REMARK   90  A    between atoms: _223  and  _224
REMARK   91  A    between atoms: _223  and  _226
REMARK   92  A    between atoms: _226  and  _227
REMARK   93  A    between atoms: _237  and  _239
REMARK   94  A    between atoms: _239  and  _240
REMARK   95  A    between atoms: _239  and  _242
REMARK   96  A    between atoms: _242  and  _243
REMARK   97  A    between atoms: _246  and  _248
REMARK   98  A    between atoms: _248  and  _249
REMARK   99  A    between atoms: _248  and  _251
REMARK  100  A    between atoms: _251  and  _252
REMARK  101  A    between atoms: _252  and  _253
REMARK  102  A    between atoms: _253  and  _254
REMARK  103  A    between atoms: _263  and  _265
REMARK  104  A    between atoms: _265  and  _266
REMARK  105  A    between atoms: _265  and  _268
REMARK  106  A    between atoms: _268  and  _269
REMARK  107  A    between atoms: _274  and  _276
REMARK  108  A    between atoms: _276  and  _277
REMARK  109  A    between atoms: _276  and  _279
REMARK  110  A    between atoms: _279  and  _280
REMARK  111  A    between atoms: _283  and  _285
REMARK  112  A    between atoms: _285  and  _286
REMARK  113  A    between atoms: _285  and  _288
REMARK  114  A    between atoms: _288  and  _289
REMARK  115  A    between atoms: _289  and  _290
REMARK  116  A    between atoms: _295  and  _297
REMARK  117  A    between atoms: _297  and  _298
REMARK  118  A    between atoms: _297  and  _300
REMARK  119  A    between atoms: _300  and  _301
REMARK  120  A    between atoms: _304  and  _306
REMARK  121  A    between atoms: _306  and  _307
REMARK  122  A    between atoms: _306  and  _309
REMARK  123  A    between atoms: _311  and  _313
REMARK  124  A    between atoms: _313  and  _314
REMARK  125  A    between atoms: _313  and  _316
REMARK  126  A    between atoms: _316  and  _317
REMARK  127  A    between atoms: _320  and  _322
REMARK  128  A    between atoms: _322  and  _323
REMARK  129  A    between atoms: _322  and  _325
REMARK  130  A    between atoms: _325  and  _326
REMARK  131  A    between atoms: _331  and  _333
REMARK  132  A    between atoms: _333  and  _334
REMARK  133  A    between atoms: _333  and  _336
REMARK  134  A    between atoms: _336  and  _337
REMARK  135  A    between atoms: _337  and  _338
REMARK  136  A    between atoms: _343  and  _345
REMARK  137  A    between atoms: _345  and  _346
REMARK  138  A    between atoms: _345  and  _348
REMARK  139  A    between atoms: _348  and  _349
REMARK  140  A    between atoms: _352  and  _354
REMARK  141  A    between atoms: _354  and  _355
REMARK  142  A    between atoms: _354  and  _357
REMARK  143  A    between atoms: _357  and  _358
REMARK  144  A    between atoms: _361  and  _363
REMARK  145  A    between atoms: _363  and  _364
REMARK  146  A    between atoms: _363  and  _366
REMARK  147  A    between atoms: _366  and  _367
REMARK  148  A    between atoms: _367  and  _368
REMARK  149  A    between atoms: _368  and  _369
REMARK  150  A    between atoms: _378  and  _380
REMARK  151  A    between atoms: _380  and  _381
REMARK  152  A    between atoms: _380  and  _383
REMARK  153  A    between atoms: _383  and  _384
REMARK  154  A    between atoms: _384  and  _385
REMARK  155  A    between atoms: _388  and  _390
REMARK  156  A    between atoms: _390  and  _391
REMARK  157  A    between atoms: _390  and  _393
REMARK  158  A    between atoms: _393  and  _394
REMARK  159  A    between atoms: _396  and  _398
REMARK  160  A    between atoms: _398  and  _399
REMARK  161  A    between atoms: _398  and  _401
REMARK  162  A    between atoms: _401  and  _402
REMARK  163  A    between atoms: _405  and  _407
REMARK  164  A    between atoms: _407  and  _408
REMARK  165  A    between atoms: _407  and  _410
REMARK  166  A    between atoms: _410  and  _411
REMARK  167  A    between atoms: _411  and  _412
REMARK  168  A    between atoms: _412  and  _413
REMARK  169  A    between atoms: _422  and  _424
REMARK  170  A    between atoms: _424  and  _425
REMARK  171  A    between atoms: _424  and  _427
REMARK  172  A    between atoms: _427  and  _428
REMARK  173  A    between atoms: _433  and  _435
REMARK  174  A    between atoms: _435  and  _436
REMARK  175  A    between atoms: _435  and  _438
REMARK  176  A    between atoms: _438  and  _439
REMARK  177  A    between atoms: _442  and  _444
REMARK  178  A    between atoms: _444  and  _445
REMARK  179  A    between atoms: _444  and  _447
REMARK  180  A    between atoms: _447  and  _448
REMARK  181  A    between atoms: _453  and  _454
REMARK  182  A    between atoms: _456  and  _458
REMARK  183  A    between atoms: _458  and  _459
REMARK  184  A    between atoms: _458  and  _461
REMARK  185  A    between atoms: _461  and  _462
REMARK  186  A    between atoms: _465  and  _467
REMARK  187  A    between atoms: _467  and  _468
REMARK  188  A    between atoms: _467  and  _470
REMARK  189  A    between atoms: _470  and  _471
REMARK  190  A    between atoms: _471  and  _472
REMARK  191  A    between atoms: _477  and  _479
REMARK  192  A    between atoms: _479  and  _480
REMARK  193  A    between atoms: _479  and  _482
REMARK  194  A    between atoms: _482  and  _483
REMARK  195  A    between atoms: _483  and  _484
REMARK  196  A    between atoms: _484  and  _485
REMARK  197  A    between atoms: _494  and  _496
REMARK  198  A    between atoms: _496  and  _497
REMARK  199  A    between atoms: _496  and  _499
REMARK  200  A    between atoms: _499  and  _500
REMARK  201  A    between atoms: _505  and  _506
REMARK  202  A    between atoms: _508  and  _510
REMARK  203  A    between atoms: _510  and  _511
REMARK  204  A    between atoms: _513  and  _515
REMARK  205  A    between atoms: _515  and  _516
REMARK  206  A    between atoms: _515  and  _518
REMARK  207  A    between atoms: _518  and  _519
REMARK  208  A    between atoms: _524  and  _526
REMARK  209  A    between atoms: _526  and  _527
REMARK  210  A    between atoms: _526  and  _529
REMARK  211  A    between atoms: _529  and  _530
REMARK  212  A    between atoms: _530  and  _531
REMARK  213  A    between atoms: _536  and  _538
REMARK  214  A    between atoms: _538  and  _539
REMARK  215  A    between atoms: _538  and  _541
REMARK  216  A    between atoms: _541  and  _542
REMARK  217  A    between atoms: _548  and  _550
REMARK  218  A    between atoms: _550  and  _551
REMARK  219  A    between atoms: _554  and  _556
REMARK  220  A    between atoms: _556  and  _557
REMARK  221  A    between atoms: _556  and  _559
REMARK  222  A    between atoms: _559  and  _560
REMARK  223  A    between atoms: _565  and  _566
REMARK  224  A    between atoms: _568  and  _570
REMARK  225  A    between atoms: _570  and  _571
REMARK  226  A    between atoms: _570  and  _573
REMARK  227  A    between atoms: _573  and  _574
REMARK  228  A    between atoms: _579  and  _580
REMARK  229  A    between atoms: _582  and  _584
REMARK  230  A    between atoms: _584  and  _585
REMARK  231  A    between atoms: _584  and  _587
REMARK  232  A    between atoms: _587  and  _588
REMARK  233  A    between atoms: _591  and  _593
REMARK  234  A    between atoms: _593  and  _594
REMARK  235  A    between atoms: _593  and  _596
REMARK  236  A    between atoms: _596  and  _597
REMARK  237  A    between atoms: _607  and  _609
REMARK  238  A    between atoms: _609  and  _610
REMARK  239  A    between atoms: _613  and  _615
REMARK  240  A    between atoms: _615  and  _616
REMARK  241  A    between atoms: _619  and  _621
REMARK  242  A    between atoms: _621  and  _622
REMARK  243  A    between atoms: _621  and  _624
REMARK  244  A    between atoms: _624  and  _625
REMARK  245  A    between atoms: _625  and  _626
REMARK  246  A    between atoms: _631  and  _633
REMARK  247  A    between atoms: _633  and  _634
REMARK  248  A    between atoms: _633  and  _636
REMARK  249  A    between atoms: _636  and  _637
REMARK  250  A    between atoms: _640  and  _642
REMARK  251  A    between atoms: _642  and  _643
REMARK  252  A    between atoms: _642  and  _645
REMARK  253  A    between atoms: _645  and  _646
REMARK  254  A    between atoms: _649  and  _651
REMARK  255  A    between atoms: _651  and  _652
REMARK  256  A    between atoms: _651  and  _654
REMARK  257  A    between atoms: _654  and  _655
REMARK  258  A    between atoms: _655  and  _656
REMARK  259  A    between atoms: _661  and  _663
REMARK  260  A    between atoms: _663  and  _664
REMARK  261  A    between atoms: _663  and  _666
REMARK  262  A    between atoms: _666  and  _667
REMARK  263  A    between atoms: _667  and  _668
REMARK  264  A    between atoms: _668  and  _669
REMARK  265  A    between atoms: _678  and  _680
REMARK  266  A    between atoms: _680  and  _681
REMARK  267  A    between atoms: _680  and  _683
REMARK  268  A    between atoms: _683  and  _684
REMARK  269  A    between atoms: _684  and  _685
REMARK  270  A    between atoms: _685  and  _686
REMARK  271  A    between atoms: _686  and  _687
REMARK  272  A    between atoms: _691  and  _693
REMARK  273  A    between atoms: _693  and  _694
REMARK  274  A    between atoms: _693  and  _696
REMARK  275  A    between atoms: _696  and  _697
REMARK  276  A    between atoms: _707  and  _709
REMARK  277  A    between atoms: _709  and  _710
REMARK  278  A    between atoms: _713  and  _715
REMARK  279  A    between atoms: _715  and  _716
REMARK  280  A    between atoms: _719  and  _721
REMARK  281  A    between atoms: _721  and  _722
REMARK  282  A    between atoms: _721  and  _724
REMARK  283  A    between atoms: _724  and  _725
REMARK  284  A    between atoms: _725  and  _726
REMARK  285  A    between atoms: _726  and  _727
REMARK  286  A    between atoms: _736  and  _738
REMARK  287  A    between atoms: _738  and  _739
REMARK  288  A    between atoms: _738  and  _741
REMARK  289  A    between atoms: _744  and  _746
REMARK  290  A    between atoms: _746  and  _747
REMARK  291  A    between atoms: _750  and  _752
REMARK  292  A    between atoms: _752  and  _753
REMARK  293  A    between atoms: _752  and  _755
REMARK  294  A    between atoms: _755  and  _756
REMARK  295  A    between atoms: _756  and  _757
REMARK  296  A    between atoms: _760  and  _762
REMARK  297  A    between atoms: _762  and  _763
REMARK  298  A    between atoms: _762  and  _765
REMARK  299  A    between atoms: _765  and  _766
REMARK  300  A    between atoms: _766  and  _767
REMARK  301  A    between atoms: _772  and  _774
REMARK  302  A    between atoms: _774  and  _775
REMARK  303  A    between atoms: _774  and  _777
REMARK  304  A    between atoms: _777  and  _778
REMARK  305  A    between atoms: _781  and  _783
REMARK  306  A    between atoms: _783  and  _784
REMARK  307  A    between atoms: _783  and  _786
REMARK  308  A    between atoms: _786  and  _787
REMARK  309  A    between atoms: _787  and  _788
REMARK  310  A    between atoms: _788  and  _789
REMARK  311  A    between atoms: _798  and  _800
REMARK  312  A    between atoms: _800  and  _801
REMARK  313  A    between atoms: _800  and  _803
REMARK  314  A    between atoms: _803  and  _804
REMARK  315  A    between atoms: _807  and  _809
REMARK  316  A    between atoms: _809  and  _810
REMARK  317  A    between atoms: _809  and  _812
REMARK  318  A    between atoms: _812  and  _813
REMARK  319  A    between atoms: _818  and  _819
REMARK  320  A    between atoms: _821  and  _823
REMARK  321  A    between atoms: _823  and  _824
REMARK  322  A    between atoms: _823  and  _826
REMARK  323  A    between atoms: _826  and  _827
REMARK  324  A    between atoms: _830  and  _832
REMARK  325  A    between atoms: _832  and  _833
REMARK  326  A    between atoms: _832  and  _835
REMARK  327  A    between atoms: _835  and  _836
REMARK  328  A    between atoms: _839  and  _841
REMARK  329  A    between atoms: _841  and  _842
REMARK  330  A    between atoms: _841  and  _844
REMARK  331  A    between atoms: _846  and  _848
REMARK  332  A    between atoms: _848  and  _849
REMARK  333  A    between atoms: _848  and  _851
REMARK  334  A    between atoms: _854  and  _856
REMARK  335  A    between atoms: _856  and  _857
REMARK  336  A    between atoms: _856  and  _859
REMARK  337  A    between atoms: _859  and  _860
REMARK  338  A    between atoms: _860  and  _861
REMARK  339  A    between atoms: _864  and  _866
REMARK  340  A    between atoms: _866  and  _867
REMARK  341  A    between atoms: _866  and  _869
REMARK  342  A    between atoms: _869  and  _870
REMARK  343  A    between atoms: _880  and  _882
REMARK  344  A    between atoms: _882  and  _883
REMARK  345  A    between atoms: _882  and  _885
REMARK  346  A    between atoms: _885  and  _886
REMARK  347  A    between atoms: _889  and  _891
REMARK  348  A    between atoms: _891  and  _892
REMARK  349  A    between atoms: _891  and  _894
REMARK  350  A    between atoms: _894  and  _895
REMARK  351  A    between atoms: _900  and  _901
REMARK                            x       y       z     vdW  Elec       q    Type
REMARK                         _______ _______ _______ _____ _____    ______ ____
ROOT
ATOM      1  CG  TRP A   1      -6.097  23.089  29.464  0.00  0.00    -0.002 A 
ATOM      2  CD1 TRP A   1      -6.631  23.603  30.611  0.00  0.00    +0.068 A 
ATOM      3  NE1 TRP A   1      -6.040  23.025  31.708  0.00  0.00    -0.352 N 
ATOM      4  HE1 TRP A   1      -6.266  23.240  32.700  0.00  0.00    +0.166 HD
ATOM      5  CE2 TRP A   1      -5.105  22.119  31.282  0.00  0.00    +0.056 A 
ATOM      6  CZ2 TRP A   1      -4.255  21.294  32.015  0.00  0.00    +0.017 A 
ATOM      7  CH2 TRP A   1      -3.412  20.476  31.313  0.00  0.00    +0.001 A 
ATOM      8  CZ3 TRP A   1      -3.397  20.468  29.911  0.00  0.00    +0.000 A 
ATOM      9  CE3 TRP A   1      -4.239  21.287  29.183  0.00  0.00    +0.001 A 
ATOM     10  CD2 TRP A   1      -5.115  22.130  29.872  0.00  0.00    +0.013 A 
ENDROOT
BRANCH   1  11
ATOM     11  CB  TRP A   1      -6.466  23.446  28.065  0.00  0.00    +0.053 C 
BRANCH  11  12
ATOM     12  CA  TRP A   1      -5.599  24.545  27.445  0.00  0.00    +0.137 C 
BRANCH  12  13
ATOM     13  N   TRP A   1      -5.627  25.744  28.277  0.00  0.00    -0.239 NA
ATOM     14  H   TRP A   1      -6.542  26.196  28.478  0.00  0.00    +0.142 HD
ENDBRANCH  12  13
BRANCH  12  15
ATOM     15  C   TRP A   1      -6.098  24.806  26.032  0.00  0.00    +0.224 C 
ATOM     16  O   TRP A   1      -6.941  25.677  25.810  0.00  0.00    -0.287 OA
ENDBRANCH  12  15
ENDBRANCH  11  12
ENDBRANCH   1  11
TORSDOF 4
REMARK  Name = ../refined-set-2016/4o2c/4o2c_pocket.pdb
REMARK  351 active torsions:
REMARK  status: ('A' for Active; 'I' for Inactive)
REMARK    1  A    between atoms: _1  and  _3
REMARK    2  A    between atoms: _3  and  _4
REMARK    3  A    between atoms: _3  and  _6
REMARK    4  A    between atoms: _6  and  _7
REMARK    5  A    between atoms: _7  and  _8
REMARK    6  A    between atoms: _10  and  _12
REMARK    7  A    between atoms: _12  and  _13
REMARK    8  A    between atoms: _12  and  _15
REMARK    9  A    between atoms: _15  and  _16
REMARK   10  A    between atoms: _16  and  _17
REMARK   11  A    between atoms: _17  and  _18
REMARK   12  A    between atoms: _27  and  _29
REMARK   13  A    between atoms: _29  and  _30
REMARK   14  A    between atoms: _29  and  _32
REMARK   15  A    between atoms: _32  and  _33
REMARK   16  A    between atoms: _38  and  _39
REMARK   17  A    between atoms: _41  and  _43
REMARK   18  A    between atoms: _43  and  _44
REMARK   19  A    between atoms: _43  and  _46
REMARK   20  A    between atoms: _46  and  _47
REMARK   21  A    between atoms: _53  and  _55
REMARK   22  A    between atoms: _55  and  _56
REMARK   23  A    between atoms: _55  and  _58
REMARK   24  A    between atoms: _58  and  _59
REMARK   25  A    between atoms: _64  and  _65
REMARK   26  A    between atoms: _67  and  _69
REMARK   27  A    between atoms: _69  and  _70
REMARK   28  A    between atoms: _69  and  _72
REMARK   29  A    between atoms: _72  and  _73
REMARK   30  A    between atoms: _79  and  _81
REMARK   31  A    between atoms: _81  and  _82
REMARK   32  A    between atoms: _81  and  _84
REMARK   33  A    between atoms: _84  and  _85
REMARK   34  A    between atoms: _88  and  _90
REMARK   35  A    between atoms: _90  and  _91
REMARK   36  A    between atoms: _90  and  _93
REMARK   37  A    between atoms: _93  and  _94
REMARK   38  A    between atoms: _96  and  _98
REMARK   39  A    between atoms: _98  and  _99
REMARK   40  A    between atoms: _98  and  _101
REMARK   41  A    between atoms: _104  and  _106
REMARK   42  A    between atoms: _106  and  _107
REMARK   43  A    between atoms: _109  and  _111
REMARK   44  A    between atoms: _111  and  _112
REMARK   45  A    between atoms: _111  and  _114
REMARK   46  A    between atoms: _114  and  _115
REMARK   47  A    between atoms: _121  and  _123
REMARK   48  A    between atoms: _123  and  _124
REMARK   49  A    between atoms: _123  and  _126
REMARK   50  A    between atoms: _129  and  _131
REMARK   51  A    between atoms: _131  and  _132
REMARK   52  A    between atoms: _131  and  _134
REMARK   53  A    between atoms: _134  and  _135
REMARK   54  A    between atoms: _135  and  _136
REMARK   55  A    between atoms: _136  and  _137
REMARK   56  A    between atoms: _146  and  _148
REMARK   57  A    between atoms: _148  and  _149
REMARK   58  A    between atoms: _148  and  _151
REMARK   59  A    between atoms: _151  and  _152
REMARK   60  A    between atoms: _158  and  _160
REMARK   61  A    between atoms: _160  and  _161
REMARK   62  A    between atoms: _160  and  _163
REMARK   63  A    between atoms: _163  and  _164
REMARK   64  A    between atoms: _164  and  _165
REMARK   65  A    between atoms: _168  and  _170
REMARK   66  A    between atoms: _170  and  _171
REMARK   67  A    between atoms: _170  and  _173
REMARK   68  A    between atoms: _173  and  _174
REMARK   69  A    between atoms: _174  and  _175
REMARK   70  A    between atoms: _178  and  _180
REMARK   71  A    between atoms: _180  and  _181
REMARK   72  A    between atoms: _180  and  _183
REMARK   73  A    between atoms: _183  and  _184
REMARK   74  A    between atoms: _187  and  _189
REMARK   75  A    between atoms: _189  and  _190
REMARK   76  A    between atoms: _189  and  _192
REMARK   77  A    between atoms: _192  and  _193
REMARK   78  A    between atoms: _193  and  _194
REMARK   79  A    between atoms: _197  and  _199
REMARK   80  A    between atoms: _199  and  _200
REMARK   81  A    between atoms: _199  and  _202
REMARK   82  A    between atoms: _202  and  _203
REMARK   83  A    between atoms: _203  and  _204
REMARK   84  A    between atoms: _207  and  _209
REMARK   85  A    between atoms: _209  and  _210
REMARK   86  A    between atoms: _209  and  _212
REMARK   87  A    between atoms: _212  and  _213
REMARK   88  A    between atoms: _218  and  _219
REMARK   89  A    between atoms: _221  and  _223
REMARK   90  A    between atoms: _223  and  _224
REMARK   91  A    between atoms: _223  and  _226
REMARK   92  A    between atoms: _226  and  _227
REMARK   93  A    between atoms: _237  and  _239
REMARK   94  A    between atoms: _239  and  _240
REMARK   95  A    between atoms: _239  and  _242
REMARK   96  A    between atoms: _242  and  _243
REMARK   97  A    between atoms: _246  and  _248
REMARK   98  A    between atoms: _248  and  _249
REMARK   99  A    between atoms: _248  and  _251
REMARK  100  A    between atoms: _251  and  _252
REMARK  101  A    between atoms: _252  and  _253
REMARK  102  A    between atoms: _253  and  _254
REMARK  103  A    between atoms: _263  and  _265
REMARK  104  A    between atoms: _265  and  _266
REMARK  105  A    between atoms: _265  and  _268
REMARK  106  A    between atoms: _268  and  _269
REMARK  107  A    between atoms: _274  and  _276
REMARK  108  A    between atoms: _276  and  _277
REMARK  109  A    between atoms: _276  and  _279
REMARK  110  A    between atoms: _279  and  _280
REMARK  111  A    between atoms: _283  and  _285
REMARK  112  A    between atoms: _285  and  _286
REMARK  113  A    between atoms: _285  and  _288
REMARK  114  A    between atoms: _288  and  _289
REMARK  115  A    between atoms: _289  and  _290
REMARK  116  A    between atoms: _295  and  _297
REMARK  117  A    between atoms: _297  and  _298
REMARK  118  A    between atoms: _297  and  _300
REMARK  119  A    between atoms: _300  and  _301
REMARK  120  A    between atoms: _304  and  _306
REMARK  121  A    between atoms: _306  and  _307
REMARK  122  A    between atoms: _306  and  _309
REMARK  123  A    between atoms: _311  and  _313
REMARK  124  A    between atoms: _313  and  _314
REMARK  125  A    between atoms: _313  and  _316
REMARK  126  A    between atoms: _316  and  _317
REMARK  127  A    between atoms: _320  and  _322
REMARK  128  A    between atoms: _322  and  _323
REMARK  129  A    between atoms: _322  and  _325
REMARK  130  A    between atoms: _325  and  _326
REMARK  131  A    between atoms: _331  and  _333
REMARK  132  A    between atoms: _333  and  _334
REMARK  133  A    between atoms: _333  and  _336
REMARK  134  A    between atoms: _336  and  _337
REMARK  135  A    between atoms: _337  and  _338
REMARK  136  A    between atoms: _343  and  _345
REMARK  137  A    between atoms: _345  and  _346
REMARK  138  A    between atoms: _345  and  _348
REMARK  139  A    between atoms: _348  and  _349
REMARK  140  A    between atoms: _352  and  _354
REMARK  141  A    between atoms: _354  and  _355
REMARK  142  A    between atoms: _354  and  _357
REMARK  143  A    between atoms: _357  and  _358
REMARK  144  A    between atoms: _361  and  _363
REMARK  145  A    between atoms: _363  and  _364
REMARK  146  A    between atoms: _363  and  _366
REMARK  147  A    between atoms: _366  and  _367
REMARK  148  A    between atoms: _367  and  _368
REMARK  149  A    between atoms: _368  and  _369
REMARK  150  A    between atoms: _378  and  _380
REMARK  151  A    between atoms: _380  and  _381
REMARK  152  A    between atoms: _380  and  _383
REMARK  153  A    between atoms: _383  and  _384
REMARK  154  A    between atoms: _384  and  _385
REMARK  155  A    between atoms: _388  and  _390
REMARK  156  A    between atoms: _390  and  _391
REMARK  157  A    between atoms: _390  and  _393
REMARK  158  A    between atoms: _393  and  _394
REMARK  159  A    between atoms: _396  and  _398
REMARK  160  A    between atoms: _398  and  _399
REMARK  161  A    between atoms: _398  and  _401
REMARK  162  A    between atoms: _401  and  _402
REMARK  163  A    between atoms: _405  and  _407
REMARK  164  A    between atoms: _407  and  _408
REMARK  165  A    between atoms: _407  and  _410
REMARK  166  A    between atoms: _410  and  _411
REMARK  167  A    between atoms: _411  and  _412
REMARK  168  A    between atoms: _412  and  _413
REMARK  169  A    between atoms: _422  and  _424
REMARK  170  A    between atoms: _424  and  _425
REMARK  171  A    between atoms: _424  and  _427
REMARK  172  A    between atoms: _427  and  _428
REMARK  173  A    between atoms: _433  and  _435
REMARK  174  A    between atoms: _435  and  _436
REMARK  175  A    between atoms: _435  and  _438
REMARK  176  A    between atoms: _438  and  _439
REMARK  177  A    between atoms: _442  and  _444
REMARK  178  A    between atoms: _444  and  _445
REMARK  179  A    between atoms: _444  and  _447
REMARK  180  A    between atoms: _447  and  _448
REMARK  181  A    between atoms: _453  and  _454
REMARK  182  A    between atoms: _456  and  _458
REMARK  183  A    between atoms: _458  and  _459
REMARK  184  A    between atoms: _458  and  _461
REMARK  185  A    between atoms: _461  and  _462
REMARK  186  A    between atoms: _465  and  _467
REMARK  187  A    between atoms: _467  and  _468
REMARK  188  A    between atoms: _467  and  _470
REMARK  189  A    between atoms: _470  and  _471
REMARK  190  A    between atoms: _471  and  _472
REMARK  191  A    between atoms: _477  and  _479
REMARK  192  A    between atoms: _479  and  _480
REMARK  193  A    between atoms: _479  and  _482
REMARK  194  A    between atoms: _482  and  _483
REMARK  195  A    between atoms: _483  and  _484
REMARK  196  A    between atoms: _484  and  _485
REMARK  197  A    between atoms: _494  and  _496
REMARK  198  A    between atoms: _496  and  _497
REMARK  199  A    between atoms: _496  and  _499
REMARK  200  A    between atoms: _499  and  _500
REMARK  201  A    between atoms: _505  and  _506
REMARK  202  A    between atoms: _508  and  _510
REMARK  203  A    between atoms: _510  and  _511
REMARK  204  A    between atoms: _513  and  _515
REMARK  205  A    between atoms: _515  and  _516
REMARK  206  A    between atoms: _515  and  _518
REMARK  207  A    between atoms: _518  and  _519
REMARK  208  A    between atoms: _524  and  _526
REMARK  209  A    between atoms: _526  and  _527
REMARK  210  A    between atoms: _526  and  _529
REMARK  211  A    between atoms: _529  and  _530
REMARK  212  A    between atoms: _530  and  _531
REMARK  213  A    between atoms: _536  and  _538
REMARK  214  A    between atoms: _538  and  _539
REMARK  215  A    between atoms: _538  and  _541
REMARK  216  A    between atoms: _541  and  _542
REMARK  217  A    between atoms: _548  and  _550
REMARK  218  A    between atoms: _550  and  _551
REMARK  219  A    between atoms: _554  and  _556
REMARK  220  A    between atoms: _556  and  _557
REMARK  221  A    between atoms: _556  and  _559
REMARK  222  A    between atoms: _559  and  _560
REMARK  223  A    between atoms: _565  and  _566
REMARK  224  A    between atoms: _568  and  _570
REMARK  225  A    between atoms: _570  and  _571
REMARK  226  A    between atoms: _570  and  _573
REMARK  227  A    between atoms: _573  and  _574
REMARK  228  A    between atoms: _579  and  _580
REMARK  229  A    between atoms: _582  and  _584
REMARK  230  A    between atoms: _584  and  _585
REMARK  231  A    between atoms: _584  and  _587
REMARK  232  A    between atoms: _587  and  _588
REMARK  233  A    between atoms: _591  and  _593
REMARK  234  A    between atoms: _593  and  _594
REMARK  235  A    between atoms: _593  and  _596
REMARK  236  A    between atoms: _596  and  _597
REMARK  237  A    between atoms: _607  and  _609
REMARK  238  A    between atoms: _609  and  _610
REMARK  239  A    between atoms: _613  and  _615
REMARK  240  A    between atoms: _615  and  _616
REMARK  241  A    between atoms: _619  and  _621
REMARK  242  A    between atoms: _621  and  _622
REMARK  243  A    between atoms: _621  and  _624
REMARK  244  A    between atoms: _624  and  _625
REMARK  245  A    between atoms: _625  and  _626
REMARK  246  A    between atoms: _631  and  _633
REMARK  247  A    between atoms: _633  and  _634
REMARK  248  A    between atoms: _633  and  _636
REMARK  249  A    between atoms: _636  and  _637
REMARK  250  A    between atoms: _640  and  _642
REMARK  251  A    between atoms: _642  and  _643
REMARK  252  A    between atoms: _642  and  _645
REMARK  253  A    between atoms: _645  and  _646
REMARK  254  A    between atoms: _649  and  _651
REMARK  255  A    between atoms: _651  and  _652
REMARK  256  A    between atoms: _651  and  _654
REMARK  257  A    between atoms: _654  and  _655
REMARK  258  A    between atoms: _655  and  _656
REMARK  259  A    between atoms: _661  and  _663
REMARK  260  A    between atoms: _663  and  _664
REMARK  261  A    between atoms: _663  and  _666
REMARK  262  A    between atoms: _666  and  _667
REMARK  263  A    between atoms: _667  and  _668
REMARK  264  A    between atoms: _668  and  _669
REMARK  265  A    between atoms: _678  and  _680
REMARK  266  A    between atoms: _680  and  _681
REMARK  267  A    between atoms: _680  and  _683
REMARK  268  A    between atoms: _683  and  _684
REMARK  269  A    between atoms: _684  and  _685
REMARK  270  A    between atoms: _685  and  _686
REMARK  271  A    between atoms: _686  and  _687
REMARK  272  A    between atoms: _691  and  _693
REMARK  273  A    between atoms: _693  and  _694
REMARK  274  A    between atoms: _693  and  _696
REMARK  275  A    between atoms: _696  and  _697
REMARK  276  A    between atoms: _707  and  _709
REMARK  277  A    between atoms: _709  and  _710
REMARK  278  A    between atoms: _713  and  _715
REMARK  279  A    between atoms: _715  and  _716
REMARK  280  A    between atoms: _719  and  _721
REMARK  281  A    between atoms: _721  and  _722
REMARK  282  A    between atoms: _721  and  _724
REMARK  283  A    between atoms: _724  and  _725
REMARK  284  A    between atoms: _725  and  _726
REMARK  285  A    between atoms: _726  and  _727
REMARK  286  A    between atoms: _736  and  _738
REMARK  287  A    between atoms: _738  and  _739
REMARK  288  A    between atoms: _738  and  _741
REMARK  289  A    between atoms: _744  and  _746
REMARK  290  A    between atoms: _746  and  _747
REMARK  291  A    between atoms: _750  and  _752
REMARK  292  A    between atoms: _752  and  _753
REMARK  293  A    between atoms: _752  and  _755
REMARK  294  A    between atoms: _755  and  _756
REMARK  295  A    between atoms: _756  and  _757
REMARK  296  A    between atoms: _760  and  _762
REMARK  297  A    between atoms: _762  and  _763
REMARK  298  A    between atoms: _762  and  _765
REMARK  299  A    between atoms: _765  and  _766
REMARK  300  A    between atoms: _766  and  _767
REMARK  301  A    between atoms: _772  and  _774
REMARK  302  A    between atoms: _774  and  _775
REMARK  303  A    between atoms: _774  and  _777
REMARK  304  A    between atoms: _777  and  _778
REMARK  305  A    between atoms: _781  and  _783
REMARK  306  A    between atoms: _783  and  _784
REMARK  307  A    between atoms: _783  and  _786
REMARK  308  A    between atoms: _786  and  _787
REMARK  309  A    between atoms: _787  and  _788
REMARK  310  A    between atoms: _788  and  _789
REMARK  311  A    between atoms: _798  and  _800
REMARK  312  A    between atoms: _800  and  _801
REMARK  313  A    between atoms: _800  and  _803
REMARK  314  A    between atoms: _803  and  _804
REMARK  315  A    between atoms: _807  and  _809
REMARK  316  A    between atoms: _809  and  _810
REMARK  317  A    between atoms: _809  and  _812
REMARK  318  A    between atoms: _812  and  _813
REMARK  319  A    between atoms: _818  and  _819
REMARK  320  A    between atoms: _821  and  _823
REMARK  321  A    between atoms: _823  and  _824
REMARK  322  A    between atoms: _823  and  _826
REMARK  323  A    between atoms: _826  and  _827
REMARK  324  A    between atoms: _830  and  _832
REMARK  325  A    between atoms: _832  and  _833
REMARK  326  A    between atoms: _832  and  _835
REMARK  327  A    between atoms: _835  and  _836
REMARK  328  A    between atoms: _839  and  _841
REMARK  329  A    between atoms: _841  and  _842
REMARK  330  A    between atoms: _841  and  _844
REMARK  331  A    between atoms: _846  and  _848
REMARK  332  A    between atoms: _848  and  _849
REMARK  333  A    between atoms: _848  and  _851
REMARK  334  A    between atoms: _854  and  _856
REMARK  335  A    between atoms: _856  and  _857
REMARK  336  A    between atoms: _856  and  _859
REMARK  337  A    between atoms: _859  and  _860
REMARK  338  A    between atoms: _860  and  _861
REMARK  339  A    between atoms: _864  and  _866
REMARK  340  A    between atoms: _866  and  _867
REMARK  341  A    between atoms: _866  and  _869
REMARK  342  A    between atoms: _869  and  _870
REMARK  343  A    between atoms: _880  and  _882
REMARK  344  A    between atoms: _882  and  _883
REMARK  345  A    between atoms: _882  and  _885
REMARK  346  A    between atoms: _885  and  _886
REMARK  347  A    between atoms: _889  and  _891
REMARK  348  A    between atoms: _891  and  _892
REMARK  349  A    between atoms: _891  and  _894
REMARK  350  A    between atoms: _894  and  _895
REMARK  351  A    between atoms: _900  and  _901
REMARK                            x       y       z     vdW  Elec       q    Type
REMARK                         _______ _______ _______ _____ _____    ______ ____
ROOT
ATOM      1  CA  GLN A   6     -10.635  20.644  29.487  0.00  0.00    +0.149 C 
ENDROOT
BRANCH   1   4
ATOM      2  C   THR A   5     -11.017  18.290  29.991  0.00  0.00    +0.243 C 
ATOM      3  O   THR A   5     -10.686  18.436  31.166  0.00  0.00    -0.273 OA
ATOM      4  N   GLN A   6     -11.035  19.289  29.113  0.00  0.00    -0.297 N 
ATOM      5  H   GLN A   6     -11.341  19.101  28.137  0.00  0.00    +0.150 HD
BRANCH   2   6
ATOM      6  CA  THR A   5     -11.448  16.924  29.469  0.00  0.00    +0.176 C 
BRANCH   6   9
ATOM      7  C   ILE A   4     -13.785  17.546  29.207  0.00  0.00    +0.241 C 
ATOM      8  O   ILE A   4     -13.884  17.876  30.386  0.00  0.00    -0.273 OA
ATOM      9  N   THR A   5     -12.670  17.045  28.686  0.00  0.00    -0.295 N 
ATOM     10  H   THR A   5     -12.670  16.731  27.694  0.00  0.00    +0.150 HD
BRANCH   7  11
ATOM     11  CA  ILE A   4     -14.963  17.688  28.252  0.00  0.00    +0.149 C 
BRANCH  11  14
ATOM     12  C   GLN A   3     -14.025  19.565  27.026  0.00  0.00    +0.241 C 
ATOM     13  O   GLN A   3     -13.985  20.264  28.038  0.00  0.00    -0.273 OA
ATOM     14  N   ILE A   4     -14.514  18.329  27.021  0.00  0.00    -0.297 N 
ATOM     15  H   ILE A   4     -14.578  17.809  26.123  0.00  0.00    +0.150 HD
BRANCH  12  16
ATOM     16  CA  GLN A   3     -13.499  20.093  25.695  0.00  0.00    +0.149 C 
BRANCH  16  19
ATOM     17  C   ALA A   2     -11.808  18.396  25.339  0.00  0.00    +0.241 C 
ATOM     18  O   ALA A   2     -11.209  18.745  26.353  0.00  0.00    -0.273 OA
ATOM     19  N   GLN A   3     -12.913  19.005  24.919  0.00  0.00    -0.297 N 
ATOM     20  H   GLN A   3     -13.363  18.704  24.031  0.00  0.00    +0.150 HD
BRANCH  17  21
ATOM     21  CA  ALA A   2     -11.303  17.221  24.503  0.00  0.00    +0.149 C 
ATOM     22  CB  ALA A   2     -10.149  17.648  23.606  0.00  0.00    +0.031 C 
BRANCH  21  25
ATOM     23  C   ALA A   1     -13.407  16.034  24.295  0.00  0.00    +0.238 C 
ATOM     24  O   ALA A   1     -13.526  15.959  25.517  0.00  0.00    -0.274 OA
ATOM     25  N   ALA A   2     -12.371  16.625  23.711  0.00  0.00    -0.297 N 
ATOM     26  H   ALA A   2     -12.321  16.663  22.673  0.00  0.00    +0.150 HD
BRANCH  23  27
ATOM     27  CA  ALA A   1     -14.469  15.454  23.364  0.00  0.00    +0.145 C 
ATOM     28  CB  ALA A   1     -13.958  14.190  22.687  0.00  0.00    +0.028 C 
BRANCH  27  29
ATOM     29  N   ALA A   1     -14.855  16.449  22.369  0.00  0.00    -0.238 NA
ATOM     30  H   ALA A   1     -14.617  16.294  21.369  0.00  0.00    +0.142 HD
ENDBRANCH  27  29
ENDBRANCH  23  27
ENDBRANCH  21  25
ENDBRANCH  17  21
ENDBRANCH  16  19
BRANCH  16  31
ATOM     31  CB  GLN A   3     -14.611  20.798  24.912  0.00  0.00    +0.039 C 
BRANCH  31  32
ATOM     32  CG  GLN A   3     -14.114  21.614  23.726  0.00  0.00    +0.087 C 
BRANCH  32  33
ATOM     33  CD  GLN A   3     -15.249  22.121  22.852  0.00  0.00    +0.219 C 
ATOM     34  OE1 GLN A   3     -16.417  22.059  23.234  0.00  0.00    -0.275 OA
ATOM     35  NE2 GLN A   3     -14.909  22.621  21.671  0.00  0.00    -0.329 N 
ATOM     36 HE21 GLN A   3     -13.909  22.654  21.389  0.00  0.00    +0.145 HD
ATOM     37 HE22 GLN A   3     -15.643  22.980  21.028  0.00  0.00    +0.145 HD
ENDBRANCH  32  33
ENDBRANCH  31  32
ENDBRANCH  16  31
ENDBRANCH  12  16
ENDBRANCH  11  14
BRANCH  11  38
ATOM     38  CB  ILE A   4     -15.568  16.295  27.988  0.00  0.00    +0.027 C 
ATOM     39  CG2 ILE A   4     -16.030  15.653  29.291  0.00  0.00    +0.002 C 
BRANCH  38  40
ATOM     40  CG1 ILE A   4     -16.715  16.386  26.978  0.00  0.00    +0.002 C 
ATOM     41  CD1 ILE A   4     -17.819  17.338  27.379  0.00  0.00    +0.000 C 
ENDBRANCH  38  40
ENDBRANCH  11  38
ENDBRANCH   7  11
ENDBRANCH   6   9
BRANCH   6  42
ATOM     42  CB  THR A   5     -10.306  16.311  28.636  0.00  0.00    +0.137 C 
ATOM     43  CG2 THR A   5      -9.035  16.213  29.461  0.00  0.00    +0.034 C 
BRANCH  42  44
ATOM     44  OG1 THR A   5     -10.688  15.002  28.199  0.00  0.00    -0.382 OA
ATOM     45  HG1 THR A   5     -10.867  14.431  28.988  0.00  0.00    +0.210 HD
ENDBRANCH  42  44
ENDBRANCH   6  42
ENDBRANCH   2   6
ENDBRANCH   1   4
BRANCH   1  46
ATOM     46  C   GLN A   6     -11.451  21.169  30.665  0.00  0.00    +0.241 C 
ATOM     47  O   GLN A   6     -10.894  21.712  31.617  0.00  0.00    -0.273 OA
ATOM     48  N   ARG A   7     -12.769  20.998  30.600  0.00  0.00    -0.297 N 
ATOM     49  H   ARG A   7     -13.180  20.538  29.763  0.00  0.00    +0.150 HD
BRANCH  48  50
ATOM     50  CA  ARG A   7     -13.653  21.441  31.678  0.00  0.00    +0.149 C 
BRANCH  50  51
ATOM     51  C   ARG A   7     -13.299  20.768  33.002  0.00  0.00    +0.241 C 
ATOM     52  O   ARG A   7     -13.222  21.429  34.039  0.00  0.00    -0.273 OA
ATOM     53  N   LYS A   8     -13.087  19.454  32.961  0.00  0.00    -0.297 N 
ATOM     54  H   LYS A   8     -13.221  18.949  32.062  0.00  0.00    +0.150 HD
BRANCH  53  55
ATOM     55  CA  LYS A   8     -12.672  18.700  34.142  0.00  0.00    +0.149 C 
BRANCH  55  56
ATOM     56  C   LYS A   8     -11.377  19.240  34.735  0.00  0.00    +0.241 C 
ATOM     57  O   LYS A   8     -11.258  19.412  35.949  0.00  0.00    -0.273 OA
ATOM     58  N   TRP A   9     -10.398  19.485  33.873  0.00  0.00    -0.298 N 
ATOM     59  H   TRP A   9     -10.575  19.383  32.853  0.00  0.00    +0.150 HD
BRANCH  58  60
ATOM     60  CA  TRP A   9      -9.080  19.894  34.335  0.00  0.00    +0.141 C 
BRANCH  60  61
ATOM     61  C   TRP A   9      -9.063  21.340  34.814  0.00  0.00    +0.227 C 
ATOM     62  O   TRP A   9      -8.286  21.696  35.697  0.00  0.00    -0.286 OA
ENDBRANCH  60  61
BRANCH  60  63
ATOM     63  CB  TRP A   9      -8.034  19.661  33.245  0.00  0.00    +0.056 C 
BRANCH  63  64
ATOM     64  CG  TRP A   9      -7.750  18.206  33.035  0.00  0.00    -0.002 A 
ATOM     65  CD1 TRP A   9      -8.303  17.158  33.712  0.00  0.00    +0.068 A 
ATOM     66  NE1 TRP A   9      -7.794  15.971  33.245  0.00  0.00    -0.352 N 
ATOM     67  HE1 TRP A   9      -8.052  15.025  33.591  0.00  0.00    +0.166 HD
ATOM     68  CE2 TRP A   9      -6.892  16.236  32.249  0.00  0.00    +0.056 A 
ATOM     69  CZ2 TRP A   9      -6.125  15.366  31.476  0.00  0.00    +0.017 A 
ATOM     70  CH2 TRP A   9      -5.299  15.918  30.538  0.00  0.00    +0.001 A 
ATOM     71  CZ3 TRP A   9      -5.223  17.308  30.355  0.00  0.00    +0.000 A 
ATOM     72  CE3 TRP A   9      -5.983  18.174  31.122  0.00  0.00    +0.001 A 
ATOM     73  CD2 TRP A   9      -6.840  17.637  32.088  0.00  0.00    +0.013 A 
ENDBRANCH  63  64
ENDBRANCH  60  63
ENDBRANCH  58  60
ENDBRANCH  55  56
BRANCH  55  74
ATOM     74  CB  LYS A   8     -12.462  17.222  33.805  0.00  0.00    +0.029 C 
BRANCH  74  75
ATOM     75  CG  LYS A   8     -13.729  16.424  33.599  0.00  0.00    +0.000 C 
BRANCH  75  76
ATOM     76  CD  LYS A   8     -13.507  14.962  33.959  0.00  0.00    -0.024 C 
BRANCH  76  77
ATOM     77  CE  LYS A   8     -12.275  14.394  33.271  0.00  0.00    -0.086 C 
BRANCH  77  78
ATOM     78  NZ  LYS A   8     -12.117  12.937  33.551  0.00  0.00    +0.380 N 
ATOM     79  HZ1 LYS A   8     -12.020  12.791  34.576  0.00  0.00    -0.089 HD
ATOM     80  HZ2 LYS A   8     -12.954  12.426  33.205  0.00  0.00    -0.089 HD
ATOM     81  HZ3 LYS A   8     -11.268  12.582  33.067  0.00  0.00    -0.089 HD
ENDBRANCH  77  78
ENDBRANCH  76  77
ENDBRANCH  75  76
ENDBRANCH  74  75
ENDBRANCH  55  74
ENDBRANCH  53  55
ENDBRANCH  50  51
BRANCH  50  82
ATOM     82  CB  ARG A   7     -15.120  21.175  31.324  0.00  0.00    +0.033 C 
BRANCH  82  83
ATOM     83  CG  ARG A   7     -15.596  21.898  30.073  0.00  0.00    +0.045 C 
BRANCH  83  84
ATOM     84  CD  ARG A   7     -16.954  21.381  29.611  0.00  0.00    +0.174 C 
BRANCH  84  85
ATOM     85  NE  ARG A   7     -17.239  21.775  28.233  0.00  0.00    -0.265 N 
ATOM     86  HE  ARG A   7     -16.571  22.420  27.765  0.00  0.00    +0.259 HD
ATOM     87  CZ  ARG A   7     -18.295  21.365  27.538  0.00  0.00    +0.342 C 
ATOM     88  NH2 ARG A   7     -19.179  20.545  28.091  0.00  0.00    -0.292 N 
ATOM     89 HH21 ARG A   7     -19.047  20.222  29.070  0.00  0.00    +0.255 HD
ATOM     90 HH22 ARG A   7     -20.005  20.226  27.545  0.00  0.00    +0.255 HD
ATOM     91  NH1 ARG A   7     -18.468  21.776  26.289  0.00  0.00    -0.292 N 
ATOM     92 HH11 ARG A   7     -17.777  22.419  25.853  0.00  0.00    +0.255 HD
ATOM     93 HH12 ARG A   7     -19.295  21.455  25.746  0.00  0.00    +0.255 HD
ENDBRANCH  84  85
ENDBRANCH  83  84
ENDBRANCH  82  83
ENDBRANCH  50  82
ENDBRANCH  48  50
ENDBRANCH   1  46
BRANCH   1  94
ATOM     94  CB  GLN A   6     -10.751  21.598  28.295  0.00  0.00    +0.039 C 
BRANCH  94  95
ATOM     95  CG  GLN A   6     -10.328  23.030  28.609  0.00  0.00    +0.087 C 
BRANCH  95  96
ATOM     96  CD  GLN A   6     -10.363  23.932  27.391  0.00  0.00    +0.219 C 
ATOM     97  NE2 GLN A   6     -10.199  25.231  27.611  0.00  0.00    -0.329 N 
ATOM     98 HE21 GLN A   6     -10.054  25.580  28.580  0.00  0.00    +0.145 HD
ATOM     99 HE22 GLN A   6     -10.216  25.899  26.814  0.00  0.00    +0.145 HD
ATOM    100  OE1 GLN A   6     -10.538  23.467  26.266  0.00  0.00    -0.275 OA
ENDBRANCH  95  96
ENDBRANCH  94  95
ENDBRANCH   1  94
TORSDOF 39
REMARK  Name = ../refined-set-2016/4o2c/4o2c_pocket.pdb
REMARK  351 active torsions:
REMARK  status: ('A' for Active; 'I' for Inactive)
REMARK    1  A    between atoms: _1  and  _3
REMARK    2  A    between atoms: _3  and  _4
REMARK    3  A    between atoms: _3  and  _6
REMARK    4  A    between atoms: _6  and  _7
REMARK    5  A    between atoms: _7  and  _8
REMARK    6  A    between atoms: _10  and  _12
REMARK    7  A    between atoms: _12  and  _13
REMARK    8  A    between atoms: _12  and  _15
REMARK    9  A    between atoms: _15  and  _16
REMARK   10  A    between atoms: _16  and  _17
REMARK   11  A    between atoms: _17  and  _18
REMARK   12  A    between atoms: _27  and  _29
REMARK   13  A    between atoms: _29  and  _30
REMARK   14  A    between atoms: _29  and  _32
REMARK   15  A    between atoms: _32  and  _33
REMARK   16  A    between atoms: _38  and  _39
REMARK   17  A    between atoms: _41  and  _43
REMARK   18  A    between atoms: _43  and  _44
REMARK   19  A    between atoms: _43  and  _46
REMARK   20  A    between atoms: _46  and  _47
REMARK   21  A    between atoms: _53  and  _55
REMARK   22  A    between atoms: _55  and  _56
REMARK   23  A    between atoms: _55  and  _58
REMARK   24  A    between atoms: _58  and  _59
REMARK   25  A    between atoms: _64  and  _65
REMARK   26  A    between atoms: _67  and  _69
REMARK   27  A    between atoms: _69  and  _70
REMARK   28  A    between atoms: _69  and  _72
REMARK   29  A    between atoms: _72  and  _73
REMARK   30  A    between atoms: _79  and  _81
REMARK   31  A    between atoms: _81  and  _82
REMARK   32  A    between atoms: _81  and  _84
REMARK   33  A    between atoms: _84  and  _85
REMARK   34  A    between atoms: _88  and  _90
REMARK   35  A    between atoms: _90  and  _91
REMARK   36  A    between atoms: _90  and  _93
REMARK   37  A    between atoms: _93  and  _94
REMARK   38  A    between atoms: _96  and  _98
REMARK   39  A    between atoms: _98  and  _99
REMARK   40  A    between atoms: _98  and  _101
REMARK   41  A    between atoms: _104  and  _106
REMARK   42  A    between atoms: _106  and  _107
REMARK   43  A    between atoms: _109  and  _111
REMARK   44  A    between atoms: _111  and  _112
REMARK   45  A    between atoms: _111  and  _114
REMARK   46  A    between atoms: _114  and  _115
REMARK   47  A    between atoms: _121  and  _123
REMARK   48  A    between atoms: _123  and  _124
REMARK   49  A    between atoms: _123  and  _126
REMARK   50  A    between atoms: _129  and  _131
REMARK   51  A    between atoms: _131  and  _132
REMARK   52  A    between atoms: _131  and  _134
REMARK   53  A    between atoms: _134  and  _135
REMARK   54  A    between atoms: _135  and  _136
REMARK   55  A    between atoms: _136  and  _137
REMARK   56  A    between atoms: _146  and  _148
REMARK   57  A    between atoms: _148  and  _149
REMARK   58  A    between atoms: _148  and  _151
REMARK   59  A    between atoms: _151  and  _152
REMARK   60  A    between atoms: _158  and  _160
REMARK   61  A    between atoms: _160  and  _161
REMARK   62  A    between atoms: _160  and  _163
REMARK   63  A    between atoms: _163  and  _164
REMARK   64  A    between atoms: _164  and  _165
REMARK   65  A    between atoms: _168  and  _170
REMARK   66  A    between atoms: _170  and  _171
REMARK   67  A    between atoms: _170  and  _173
REMARK   68  A    between atoms: _173  and  _174
REMARK   69  A    between atoms: _174  and  _175
REMARK   70  A    between atoms: _178  and  _180
REMARK   71  A    between atoms: _180  and  _181
REMARK   72  A    between atoms: _180  and  _183
REMARK   73  A    between atoms: _183  and  _184
REMARK   74  A    between atoms: _187  and  _189
REMARK   75  A    between atoms: _189  and  _190
REMARK   76  A    between atoms: _189  and  _192
REMARK   77  A    between atoms: _192  and  _193
REMARK   78  A    between atoms: _193  and  _194
REMARK   79  A    between atoms: _197  and  _199
REMARK   80  A    between atoms: _199  and  _200
REMARK   81  A    between atoms: _199  and  _202
REMARK   82  A    between atoms: _202  and  _203
REMARK   83  A    between atoms: _203  and  _204
REMARK   84  A    between atoms: _207  and  _209
REMARK   85  A    between atoms: _209  and  _210
REMARK   86  A    between atoms: _209  and  _212
REMARK   87  A    between atoms: _212  and  _213
REMARK   88  A    between atoms: _218  and  _219
REMARK   89  A    between atoms: _221  and  _223
REMARK   90  A    between atoms: _223  and  _224
REMARK   91  A    between atoms: _223  and  _226
REMARK   92  A    between atoms: _226  and  _227
REMARK   93  A    between atoms: _237  and  _239
REMARK   94  A    between atoms: _239  and  _240
REMARK   95  A    between atoms: _239  and  _242
REMARK   96  A    between atoms: _242  and  _243
REMARK   97  A    between atoms: _246  and  _248
REMARK   98  A    between atoms: _248  and  _249
REMARK   99  A    between atoms: _248  and  _251
REMARK  100  A    between atoms: _251  and  _252
REMARK  101  A    between atoms: _252  and  _253
REMARK  102  A    between atoms: _253  and  _254
REMARK  103  A    between atoms: _263  and  _265
REMARK  104  A    between atoms: _265  and  _266
REMARK  105  A    between atoms: _265  and  _268
REMARK  106  A    between atoms: _268  and  _269
REMARK  107  A    between atoms: _274  and  _276
REMARK  108  A    between atoms: _276  and  _277
REMARK  109  A    between atoms: _276  and  _279
REMARK  110  A    between atoms: _279  and  _280
REMARK  111  A    between atoms: _283  and  _285
REMARK  112  A    between atoms: _285  and  _286
REMARK  113  A    between atoms: _285  and  _288
REMARK  114  A    between atoms: _288  and  _289
REMARK  115  A    between atoms: _289  and  _290
REMARK  116  A    between atoms: _295  and  _297
REMARK  117  A    between atoms: _297  and  _298
REMARK  118  A    between atoms: _297  and  _300
REMARK  119  A    between atoms: _300  and  _301
REMARK  120  A    between atoms: _304  and  _306
REMARK  121  A    between atoms: _306  and  _307
REMARK  122  A    between atoms: _306  and  _309
REMARK  123  A    between atoms: _311  and  _313
REMARK  124  A    between atoms: _313  and  _314
REMARK  125  A    between atoms: _313  and  _316
REMARK  126  A    between atoms: _316  and  _317
REMARK  127  A    between atoms: _320  and  _322
REMARK  128  A    between atoms: _322  and  _323
REMARK  129  A    between atoms: _322  and  _325
REMARK  130  A    between atoms: _325  and  _326
REMARK  131  A    between atoms: _331  and  _333
REMARK  132  A    between atoms: _333  and  _334
REMARK  133  A    between atoms: _333  and  _336
REMARK  134  A    between atoms: _336  and  _337
REMARK  135  A    between atoms: _337  and  _338
REMARK  136  A    between atoms: _343  and  _345
REMARK  137  A    between atoms: _345  and  _346
REMARK  138  A    between atoms: _345  and  _348
REMARK  139  A    between atoms: _348  and  _349
REMARK  140  A    between atoms: _352  and  _354
REMARK  141  A    between atoms: _354  and  _355
REMARK  142  A    between atoms: _354  and  _357
REMARK  143  A    between atoms: _357  and  _358
REMARK  144  A    between atoms: _361  and  _363
REMARK  145  A    between atoms: _363  and  _364
REMARK  146  A    between atoms: _363  and  _366
REMARK  147  A    between atoms: _366  and  _367
REMARK  148  A    between atoms: _367  and  _368
REMARK  149  A    between atoms: _368  and  _369
REMARK  150  A    between atoms: _378  and  _380
REMARK  151  A    between atoms: _380  and  _381
REMARK  152  A    between atoms: _380  and  _383
REMARK  153  A    between atoms: _383  and  _384
REMARK  154  A    between atoms: _384  and  _385
REMARK  155  A    between atoms: _388  and  _390
REMARK  156  A    between atoms: _390  and  _391
REMARK  157  A    between atoms: _390  and  _393
REMARK  158  A    between atoms: _393  and  _394
REMARK  159  A    between atoms: _396  and  _398
REMARK  160  A    between atoms: _398  and  _399
REMARK  161  A    between atoms: _398  and  _401
REMARK  162  A    between atoms: _401  and  _402
REMARK  163  A    between atoms: _405  and  _407
REMARK  164  A    between atoms: _407  and  _408
REMARK  165  A    between atoms: _407  and  _410
REMARK  166  A    between atoms: _410  and  _411
REMARK  167  A    between atoms: _411  and  _412
REMARK  168  A    between atoms: _412  and  _413
REMARK  169  A    between atoms: _422  and  _424
REMARK  170  A    between atoms: _424  and  _425
REMARK  171  A    between atoms: _424  and  _427
REMARK  172  A    between atoms: _427  and  _428
REMARK  173  A    between atoms: _433  and  _435
REMARK  174  A    between atoms: _435  and  _436
REMARK  175  A    between atoms: _435  and  _438
REMARK  176  A    between atoms: _438  and  _439
REMARK  177  A    between atoms: _442  and  _444
REMARK  178  A    between atoms: _444  and  _445
REMARK  179  A    between atoms: _444  and  _447
REMARK  180  A    between atoms: _447  and  _448
REMARK  181  A    between atoms: _453  and  _454
REMARK  182  A    between atoms: _456  and  _458
REMARK  183  A    between atoms: _458  and  _459
REMARK  184  A    between atoms: _458  and  _461
REMARK  185  A    between atoms: _461  and  _462
REMARK  186  A    between atoms: _465  and  _467
REMARK  187  A    between atoms: _467  and  _468
REMARK  188  A    between atoms: _467  and  _470
REMARK  189  A    between atoms: _470  and  _471
REMARK  190  A    between atoms: _471  and  _472
REMARK  191  A    between atoms: _477  and  _479
REMARK  192  A    between atoms: _479  and  _480
REMARK  193  A    between atoms: _479  and  _482
REMARK  194  A    between atoms: _482  and  _483
REMARK  195  A    between atoms: _483  and  _484
REMARK  196  A    between atoms: _484  and  _485
REMARK  197  A    between atoms: _494  and  _496
REMARK  198  A    between atoms: _496  and  _497
REMARK  199  A    between atoms: _496  and  _499
REMARK  200  A    between atoms: _499  and  _500
REMARK  201  A    between atoms: _505  and  _506
REMARK  202  A    between atoms: _508  and  _510
REMARK  203  A    between atoms: _510  and  _511
REMARK  204  A    between atoms: _513  and  _515
REMARK  205  A    between atoms: _515  and  _516
REMARK  206  A    between atoms: _515  and  _518
REMARK  207  A    between atoms: _518  and  _519
REMARK  208  A    between atoms: _524  and  _526
REMARK  209  A    between atoms: _526  and  _527
REMARK  210  A    between atoms: _526  and  _529
REMARK  211  A    between atoms: _529  and  _530
REMARK  212  A    between atoms: _530  and  _531
REMARK  213  A    between atoms: _536  and  _538
REMARK  214  A    between atoms: _538  and  _539
REMARK  215  A    between atoms: _538  and  _541
REMARK  216  A    between atoms: _541  and  _542
REMARK  217  A    between atoms: _548  and  _550
REMARK  218  A    between atoms: _550  and  _551
REMARK  219  A    between atoms: _554  and  _556
REMARK  220  A    between atoms: _556  and  _557
REMARK  221  A    between atoms: _556  and  _559
REMARK  222  A    between atoms: _559  and  _560
REMARK  223  A    between atoms: _565  and  _566
REMARK  224  A    between atoms: _568  and  _570
REMARK  225  A    between atoms: _570  and  _571
REMARK  226  A    between atoms: _570  and  _573
REMARK  227  A    between atoms: _573  and  _574
REMARK  228  A    between atoms: _579  and  _580
REMARK  229  A    between atoms: _582  and  _584
REMARK  230  A    between atoms: _584  and  _585
REMARK  231  A    between atoms: _584  and  _587
REMARK  232  A    between atoms: _587  and  _588
REMARK  233  A    between atoms: _591  and  _593
REMARK  234  A    between atoms: _593  and  _594
REMARK  235  A    between atoms: _593  and  _596
REMARK  236  A    between atoms: _596  and  _597
REMARK  237  A    between atoms: _607  and  _609
REMARK  238  A    between atoms: _609  and  _610
REMARK  239  A    between atoms: _613  and  _615
REMARK  240  A    between atoms: _615  and  _616
REMARK  241  A    between atoms: _619  and  _621
REMARK  242  A    between atoms: _621  and  _622
REMARK  243  A    between atoms: _621  and  _624
REMARK  244  A    between atoms: _624  and  _625
REMARK  245  A    between atoms: _625  and  _626
REMARK  246  A    between atoms: _631  and  _633
REMARK  247  A    between atoms: _633  and  _634
REMARK  248  A    between atoms: _633  and  _636
REMARK  249  A    between atoms: _636  and  _637
REMARK  250  A    between atoms: _640  and  _642
REMARK  251  A    between atoms: _642  and  _643
REMARK  252  A    between atoms: _642  and  _645
REMARK  253  A    between atoms: _645  and  _646
REMARK  254  A    between atoms: _649  and  _651
REMARK  255  A    between atoms: _651  and  _652
REMARK  256  A    between atoms: _651  and  _654
REMARK  257  A    between atoms: _654  and  _655
REMARK  258  A    between atoms: _655  and  _656
REMARK  259  A    between atoms: _661  and  _663
REMARK  260  A    between atoms: _663  and  _664
REMARK  261  A    between atoms: _663  and  _666
REMARK  262  A    between atoms: _666  and  _667
REMARK  263  A    between atoms: _667  and  _668
REMARK  264  A    between atoms: _668  and  _669
REMARK  265  A    between atoms: _678  and  _680
REMARK  266  A    between atoms: _680  and  _681
REMARK  267  A    between atoms: _680  and  _683
REMARK  268  A    between atoms: _683  and  _684
REMARK  269  A    between atoms: _684  and  _685
REMARK  270  A    between atoms: _685  and  _686
REMARK  271  A    between atoms: _686  and  _687
REMARK  272  A    between atoms: _691  and  _693
REMARK  273  A    between atoms: _693  and  _694
REMARK  274  A    between atoms: _693  and  _696
REMARK  275  A    between atoms: _696  and  _697
REMARK  276  A    between atoms: _707  and  _709
REMARK  277  A    between atoms: _709  and  _710
REMARK  278  A    between atoms: _713  and  _715
REMARK  279  A    between atoms: _715  and  _716
REMARK  280  A    between atoms: _719  and  _721
REMARK  281  A    between atoms: _721  and  _722
REMARK  282  A    between atoms: _721  and  _724
REMARK  283  A    between atoms: _724  and  _725
REMARK  284  A    between atoms: _725  and  _726
REMARK  285  A    between atoms: _726  and  _727
REMARK  286  A    between atoms: _736  and  _738
REMARK  287  A    between atoms: _738  and  _739
REMARK  288  A    between atoms: _738  and  _741
REMARK  289  A    between atoms: _744  and  _746
REMARK  290  A    between atoms: _746  and  _747
REMARK  291  A    between atoms: _750  and  _752
REMARK  292  A    between atoms: _752  and  _753
REMARK  293  A    between atoms: _752  and  _755
REMARK  294  A    between atoms: _755  and  _756
REMARK  295  A    between atoms: _756  and  _757
REMARK  296  A    between atoms: _760  and  _762
REMARK  297  A    between atoms: _762  and  _763
REMARK  298  A    between atoms: _762  and  _765
REMARK  299  A    between atoms: _765  and  _766
REMARK  300  A    between atoms: _766  and  _767
REMARK  301  A    between atoms: _772  and  _774
REMARK  302  A    between atoms: _774  and  _775
REMARK  303  A    between atoms: _774  and  _777
REMARK  304  A    between atoms: _777  and  _778
REMARK  305  A    between atoms: _781  and  _783
REMARK  306  A    between atoms: _783  and  _784
REMARK  307  A    between atoms: _783  and  _786
REMARK  308  A    between atoms: _786  and  _787
REMARK  309  A    between atoms: _787  and  _788
REMARK  310  A    between atoms: _788  and  _789
REMARK  311  A    between atoms: _798  and  _800
REMARK  312  A    between atoms: _800  and  _801
REMARK  313  A    between atoms: _800  and  _803
REMARK  314  A    between atoms: _803  and  _804
REMARK  315  A    between atoms: _807  and  _809
REMARK  316  A    between atoms: _809  and  _810
REMARK  317  A    between atoms: _809  and  _812
REMARK  318  A    between atoms: _812  and  _813
REMARK  319  A    between atoms: _818  and  _819
REMARK  320  A    between atoms: _821  and  _823
REMARK  321  A    between atoms: _823  and  _824
REMARK  322  A    between atoms: _823  and  _826
REMARK  323  A    between atoms: _826  and  _827
REMARK  324  A    between atoms: _830  and  _832
REMARK  325  A    between atoms: _832  and  _833
REMARK  326  A    between atoms: _832  and  _835
REMARK  327  A    between atoms: _835  and  _836
REMARK  328  A    between atoms: _839  and  _841
REMARK  329  A    between atoms: _841  and  _842
REMARK  330  A    between atoms: _841  and  _844
REMARK  331  A    between atoms: _846  and  _848
REMARK  332  A    between atoms: _848  and  _849
REMARK  333  A    between atoms: _848  and  _851
REMARK  334  A    between atoms: _854  and  _856
REMARK  335  A    between atoms: _856  and  _857
REMARK  336  A    between atoms: _856  and  _859
REMARK  337  A    between atoms: _859  and  _860
REMARK  338  A    between atoms: _860  and  _861
REMARK  339  A    between atoms: _864  and  _866
REMARK  340  A    between atoms: _866  and  _867
REMARK  341  A    between atoms: _866  and  _869
REMARK  342  A    between atoms: _869  and  _870
REMARK  343  A    between atoms: _880  and  _882
REMARK  344  A    between atoms: _882  and  _883
REMARK  345  A    between atoms: _882  and  _885
REMARK  346  A    between atoms: _885  and  _886
REMARK  347  A    between atoms: _889  and  _891
REMARK  348  A    between atoms: _891  and  _892
REMARK  349  A    between atoms: _891  and  _894
REMARK  350  A    between atoms: _894  and  _895
REMARK  351  A    between atoms: _900  and  _901
REMARK                            x       y       z     vdW  Elec       q    Type
REMARK                         _______ _______ _______ _____ _____    ______ ____
ROOT
ATOM      1  CA  GLN A   7      -0.246  21.957  39.380  0.00  0.00    +0.149 C 
ENDROOT
BRANCH   1   4
ATOM      2  C   GLU A   6      -0.624  24.250  38.693  0.00  0.00    +0.241 C 
ATOM      3  O   GLU A   6       0.520  24.576  39.012  0.00  0.00    -0.273 OA
ATOM      4  N   GLN A   7      -1.092  23.019  38.854  0.00  0.00    -0.297 N 
ATOM      5  H   GLN A   7      -2.079  22.809  38.601  0.00  0.00    +0.150 HD
BRANCH   2   6
ATOM      6  CA  GLU A   6      -1.584  25.269  38.088  0.00  0.00    +0.149 C 
BRANCH   6   8
ATOM      7  C   ALA A   5      -1.835  24.211  35.913  0.00  0.00    +0.241 C 
ATOM      8  N   GLU A   6      -2.396  24.693  37.018  0.00  0.00    -0.297 N 
ATOM      9  H   GLU A   6      -3.430  24.660  37.123  0.00  0.00    +0.150 HD
ATOM     10  O   ALA A   5      -0.620  24.238  35.721  0.00  0.00    -0.273 OA
BRANCH   7  11
ATOM     11  CA  ALA A   5      -2.775  23.609  34.867  0.00  0.00    +0.149 C 
ATOM     12  CB  ALA A   5      -3.412  24.704  34.023  0.00  0.00    +0.031 C 
BRANCH  11  15
ATOM     13  C   VAL A   4      -3.482  21.725  36.238  0.00  0.00    +0.241 C 
ATOM     14  O   VAL A   4      -2.318  21.437  36.523  0.00  0.00    -0.273 OA
ATOM     15  N   ALA A   5      -3.801  22.762  35.469  0.00  0.00    -0.297 N 
ATOM     16  H   ALA A   5      -4.804  22.975  35.292  0.00  0.00    +0.150 HD
BRANCH  13  17
ATOM     17  CA  VAL A   4      -4.644  20.892  36.771  0.00  0.00    +0.149 C 
BRANCH  17  20
ATOM     18  C   ARG A   3      -5.707  22.575  38.174  0.00  0.00    +0.241 C 
ATOM     19  O   ARG A   3      -4.703  22.697  38.880  0.00  0.00    -0.273 OA
ATOM     20  N   VAL A   4      -5.772  21.734  37.147  0.00  0.00    -0.297 N 
ATOM     21  H   VAL A   4      -6.652  21.675  36.596  0.00  0.00    +0.150 HD
BRANCH  18  22
ATOM     22  CA  ARG A   3      -6.967  23.398  38.439  0.00  0.00    +0.149 C 
BRANCH  22  25
ATOM     23  C   ALA A   2      -8.214  21.466  39.256  0.00  0.00    +0.241 C 
ATOM     24  O   ALA A   2      -7.283  21.098  39.971  0.00  0.00    -0.273 OA
ATOM     25  N   ARG A   3      -8.160  22.559  38.502  0.00  0.00    -0.297 N 
ATOM     26  H   ARG A   3      -8.993  22.825  37.939  0.00  0.00    +0.150 HD
BRANCH  23  27
ATOM     27  CA  ALA A   2      -9.515  20.665  39.198  0.00  0.00    +0.149 C 
ATOM     28  CB  ALA A   2      -9.231  19.215  38.828  0.00  0.00    +0.031 C 
BRANCH  27  31
ATOM     29  C   ALA A   1     -11.378  22.141  38.663  0.00  0.00    +0.238 C 
ATOM     30  O   ALA A   1     -11.447  22.550  39.821  0.00  0.00    -0.274 OA
ATOM     31  N   ALA A   2     -10.476  21.249  38.267  0.00  0.00    -0.297 N 
ATOM     32  H   ALA A   2     -10.454  20.960  37.268  0.00  0.00    +0.150 HD
BRANCH  29  33
ATOM     33  CA  ALA A   1     -12.344  22.652  37.597  0.00  0.00    +0.145 C 
ATOM     34  CB  ALA A   1     -13.572  21.757  37.516  0.00  0.00    +0.028 C 
BRANCH  33  35
ATOM     35  N   ALA A   1     -11.698  22.751  36.293  0.00  0.00    -0.238 NA
ATOM     36  H   ALA A   1     -12.045  22.163  35.509  0.00  0.00    +0.142 HD
ENDBRANCH  33  35
ENDBRANCH  29  33
ENDBRANCH  27  31
ENDBRANCH  23  27
ENDBRANCH  22  25
BRANCH  22  37
ATOM     37  CB  ARG A   3      -6.816  24.233  39.715  0.00  0.00    +0.033 C 
BRANCH  37  38
ATOM     38  CG  ARG A   3      -7.906  25.284  39.892  0.00  0.00    +0.045 C 
BRANCH  38  39
ATOM     39  CD  ARG A   3      -7.453  26.402  40.819  0.00  0.00    +0.174 C 
BRANCH  39  40
ATOM     40  NE  ARG A   3      -8.458  27.455  40.957  0.00  0.00    -0.265 N 
ATOM     41  HE  ARG A   3      -9.083  27.424  41.787  0.00  0.00    +0.259 HD
ATOM     42  CZ  ARG A   3      -8.625  28.450  40.091  0.00  0.00    +0.342 C 
ATOM     43  NH2 ARG A   3      -9.561  29.365  40.300  0.00  0.00    -0.292 N 
ATOM     44 HH21 ARG A   3     -10.167  29.306  41.143  0.00  0.00    +0.255 HD
ATOM     45 HH22 ARG A   3      -9.689  30.142  39.621  0.00  0.00    +0.255 HD
ATOM     46  NH1 ARG A   3      -7.860  28.529  39.011  0.00  0.00    -0.292 N 
ATOM     47 HH11 ARG A   3      -7.127  27.812  38.839  0.00  0.00    +0.255 HD
ATOM     48 HH12 ARG A   3      -7.993  29.308  38.335  0.00  0.00    +0.255 HD
ENDBRANCH  39  40
ENDBRANCH  38  39
ENDBRANCH  37  38
ENDBRANCH  22  37
ENDBRANCH  18  22
ENDBRANCH  17  20
BRANCH  17  49
ATOM     49  CB  VAL A   4      -5.057  19.843  35.719  0.00  0.00    +0.027 C 
ATOM     50  CG2 VAL A   4      -6.104  18.897  36.296  0.00  0.00    +0.002 C 
ATOM     51  CG1 VAL A   4      -3.841  19.070  35.224  0.00  0.00    +0.002 C 
ENDBRANCH  17  49
ENDBRANCH  13  17
ENDBRANCH  11  15
ENDBRANCH   7  11
ENDBRANCH   6   8
BRANCH   6  52
ATOM     52  CB  GLU A   6      -2.471  25.875  39.175  0.00  0.00    +0.041 C 
BRANCH  52  53
ATOM     53  CG  GLU A   6      -3.055  27.221  38.792  0.00  0.00    +0.116 C 
BRANCH  53  54
ATOM     54  CD  GLU A   6      -4.368  27.502  39.485  0.00  0.00    +0.365 C 
ATOM     55  OE2 GLU A   6      -4.412  27.468  40.733  0.00  0.00    -0.246 OA
ATOM     56  OE1 GLU A   6      -5.360  27.758  38.772  0.00  0.00    -0.246 OA
ENDBRANCH  53  54
ENDBRANCH  52  53
ENDBRANCH   6  52
ENDBRANCH   2   6
ENDBRANCH   1   4
BRANCH   1  57
ATOM     57  C   GLN A   7       0.871  21.628  38.394  0.00  0.00    +0.241 C 
ATOM     58  O   GLN A   7       2.013  21.403  38.790  0.00  0.00    -0.273 OA
ATOM     59  N   LEU A   8       0.537  21.604  37.108  0.00  0.00    -0.297 N 
ATOM     60  H   LEU A   8      -0.454  21.763  36.835  0.00  0.00    +0.150 HD
BRANCH  59  61
ATOM     61  CA  LEU A   8       1.535  21.358  36.072  0.00  0.00    +0.149 C 
BRANCH  61  62
ATOM     62  C   LEU A   8       2.558  22.488  36.024  0.00  0.00    +0.241 C 
ATOM     63  N   ARG A   9       2.085  23.725  36.139  0.00  0.00    -0.297 N 
ATOM     64  H   ARG A   9       1.061  23.877  36.239  0.00  0.00    +0.150 HD
ATOM     65  O   LEU A   8       3.756  22.244  35.891  0.00  0.00    -0.273 OA
BRANCH  63  66
ATOM     66  CA  ARG A   9       2.986  24.871  36.126  0.00  0.00    +0.149 C 
BRANCH  66  67
ATOM     67  C   ARG A   9       4.034  24.737  37.226  0.00  0.00    +0.241 C 
ATOM     68  N   THR A  10       3.584  24.380  38.424  0.00  0.00    -0.295 N 
ATOM     69  H   THR A  10       2.566  24.210  38.555  0.00  0.00    +0.150 HD
ATOM     70  O   ARG A   9       5.223  24.945  36.994  0.00  0.00    -0.273 OA
BRANCH  68  71
ATOM     71  CA  THR A  10       4.485  24.221  39.561  0.00  0.00    +0.176 C 
BRANCH  71  72
ATOM     72  C   THR A  10       5.548  23.163  39.278  0.00  0.00    +0.243 C 
ATOM     73  O   THR A  10       6.729  23.363  39.560  0.00  0.00    -0.273 OA
ATOM     74  N   TYR A  11       5.123  22.037  38.717  0.00  0.00    -0.297 N 
ATOM     75  H   TYR A  11       4.108  21.910  38.532  0.00  0.00    +0.150 HD
BRANCH  74  76
ATOM     76  CA  TYR A  11       6.056  20.974  38.356  0.00  0.00    +0.153 C 
BRANCH  76  77
ATOM     77  C   TYR A  11       7.052  21.425  37.287  0.00  0.00    +0.241 C 
ATOM     78  O   TYR A  11       8.257  21.202  37.410  0.00  0.00    -0.273 OA
ATOM     79  N   LEU A  12       6.543  22.055  36.234  0.00  0.00    -0.298 N 
ATOM     80  H   LEU A  12       5.531  22.296  36.224  0.00  0.00    +0.150 HD
BRANCH  79  81
ATOM     81  CA  LEU A  12       7.376  22.415  35.091  0.00  0.00    +0.137 C 
BRANCH  81  82
ATOM     82  C   LEU A  12       8.400  23.499  35.418  0.00  0.00    +0.227 C 
ATOM     83  O   LEU A  12       9.521  23.472  34.910  0.00  0.00    -0.286 OA
ENDBRANCH  81  82
BRANCH  81  84
ATOM     84  CB  LEU A  12       6.506  22.844  33.908  0.00  0.00    +0.028 C 
BRANCH  84  85
ATOM     85  CG  LEU A  12       5.650  21.744  33.275  0.00  0.00    +0.002 C 
ATOM     86  CD2 LEU A  12       6.524  20.715  32.562  0.00  0.00    +0.000 C 
ATOM     87  CD1 LEU A  12       4.627  22.338  32.321  0.00  0.00    +0.000 C 
ENDBRANCH  84  85
ENDBRANCH  81  84
ENDBRANCH  79  81
ENDBRANCH  76  77
BRANCH  76  88
ATOM     88  CB  TYR A  11       5.305  19.734  37.867  0.00  0.00    +0.055 C 
BRANCH  88  89
ATOM     89  CG  TYR A  11       6.208  18.738  37.177  0.00  0.00    -0.020 A 
ATOM     90  CD2 TYR A  11       6.963  17.833  37.910  0.00  0.00    -0.001 A 
ATOM     91  CE2 TYR A  11       7.798  16.926  37.284  0.00  0.00    +0.036 A 
ATOM     92  CZ  TYR A  11       7.883  16.919  35.908  0.00  0.00    +0.134 A 
ATOM     93  CE1 TYR A  11       7.146  17.810  35.160  0.00  0.00    +0.036 A 
ATOM     94  CD1 TYR A  11       6.314  18.713  35.795  0.00  0.00    -0.001 A 
BRANCH  92  95
ATOM     95  OH  TYR A  11       8.710  16.018  35.275  0.00  0.00    -0.506 OA
ATOM     96  HH  TYR A  11       9.163  15.456  35.952  0.00  0.00    +0.292 HD
ENDBRANCH  92  95
ENDBRANCH  88  89
ENDBRANCH  76  88
ENDBRANCH  74  76
ENDBRANCH  71  72
BRANCH  71  97
ATOM     97  CB  THR A  10       3.714  23.849  40.840  0.00  0.00    +0.137 C 
ATOM     98  CG2 THR A  10       4.669  23.697  42.019  0.00  0.00    +0.034 C 
BRANCH  97  99
ATOM     99  OG1 THR A  10       2.759  24.877  41.136  0.00  0.00    -0.382 OA
ATOM    100  HG1 THR A  10       2.263  24.638  41.959  0.00  0.00    +0.210 HD
ENDBRANCH  97  99
ENDBRANCH  71  97
ENDBRANCH  68  71
ENDBRANCH  66  67
BRANCH  66 101
ATOM    101  CB  ARG A   9       2.218  26.184  36.288  0.00  0.00    +0.033 C 
BRANCH 101 102
ATOM    102  CG  ARG A   9       3.126  27.406  36.338  0.00  0.00    +0.045 C 
BRANCH 102 103
ATOM    103  CD  ARG A   9       2.343  28.693  36.543  0.00  0.00    +0.174 C 
BRANCH 103 104
ATOM    104  NE  ARG A   9       3.239  29.830  36.736  0.00  0.00    -0.265 N 
ATOM    105  CZ  ARG A   9       2.831  31.070  36.984  0.00  0.00    +0.342 C 
ATOM    106  NH2 ARG A   9       3.718  32.042  37.148  0.00  0.00    -0.292 N 
ATOM    107 HH21 ARG A   9       3.397  33.012  37.342  0.00  0.00    +0.255 HD
ATOM    108 HH22 ARG A   9       4.735  31.834  37.083  0.00  0.00    +0.255 HD
ATOM    109  NH1 ARG A   9       1.535  31.336  37.069  0.00  0.00    -0.292 N 
ATOM    110 HH11 ARG A   9       1.215  32.306  37.263  0.00  0.00    +0.255 HD
ATOM    111 HH12 ARG A   9       0.838  30.574  36.942  0.00  0.00    +0.255 HD
ATOM    112  HE  ARG A   9       4.263  29.658  36.675  0.00  0.00    +0.259 HD
ENDBRANCH 103 104
ENDBRANCH 102 103
ENDBRANCH 101 102
ENDBRANCH  66 101
ENDBRANCH  63  66
ENDBRANCH  61  62
BRANCH  61 113
ATOM    113  CB  LEU A   8       0.868  21.184  34.705  0.00  0.00    +0.029 C 
BRANCH 113 114
ATOM    114  CG  LEU A   8       0.477  19.764  34.287  0.00  0.00    +0.002 C 
ATOM    115  CD2 LEU A   8       0.394  18.838  35.486  0.00  0.00    +0.000 C 
ATOM    116  CD1 LEU A   8      -0.851  19.791  33.547  0.00  0.00    +0.000 C 
ENDBRANCH 113 114
ENDBRANCH  61 113
ENDBRANCH  59  61
ENDBRANCH   1  57
BRANCH   1 117
ATOM    117  CB  GLN A   7      -1.074  20.711  39.695  0.00  0.00    +0.039 C 
BRANCH 117 118
ATOM    118  CG  GLN A   7      -2.140  20.936  40.753  0.00  0.00    +0.087 C 
BRANCH 118 119
ATOM    119  CD  GLN A   7      -3.013  19.718  40.969  0.00  0.00    +0.219 C 
ATOM    120  NE2 GLN A   7      -2.403  18.621  41.401  0.00  0.00    -0.329 N 
ATOM    121 HE21 GLN A   7      -1.378  18.631  41.577  0.00  0.00    +0.145 HD
ATOM    122 HE22 GLN A   7      -2.950  17.751  41.563  0.00  0.00    +0.145 HD
ATOM    123  OE1 GLN A   7      -4.223  19.760  40.745  0.00  0.00    -0.275 OA
ENDBRANCH 118 119
ENDBRANCH 117 118
ENDBRANCH   1 117
TORSDOF 48
REMARK  Name = ../refined-set-2016/4o2c/4o2c_pocket.pdb
REMARK  351 active torsions:
REMARK  status: ('A' for Active; 'I' for Inactive)
REMARK    1  A    between atoms: _1  and  _3
REMARK    2  A    between atoms: _3  and  _4
REMARK    3  A    between atoms: _3  and  _6
REMARK    4  A    between atoms: _6  and  _7
REMARK    5  A    between atoms: _7  and  _8
REMARK    6  A    between atoms: _10  and  _12
REMARK    7  A    between atoms: _12  and  _13
REMARK    8  A    between atoms: _12  and  _15
REMARK    9  A    between atoms: _15  and  _16
REMARK   10  A    between atoms: _16  and  _17
REMARK   11  A    between atoms: _17  and  _18
REMARK   12  A    between atoms: _27  and  _29
REMARK   13  A    between atoms: _29  and  _30
REMARK   14  A    between atoms: _29  and  _32
REMARK   15  A    between atoms: _32  and  _33
REMARK   16  A    between atoms: _38  and  _39
REMARK   17  A    between atoms: _41  and  _43
REMARK   18  A    between atoms: _43  and  _44
REMARK   19  A    between atoms: _43  and  _46
REMARK   20  A    between atoms: _46  and  _47
REMARK   21  A    between atoms: _53  and  _55
REMARK   22  A    between atoms: _55  and  _56
REMARK   23  A    between atoms: _55  and  _58
REMARK   24  A    between atoms: _58  and  _59
REMARK   25  A    between atoms: _64  and  _65
REMARK   26  A    between atoms: _67  and  _69
REMARK   27  A    between atoms: _69  and  _70
REMARK   28  A    between atoms: _69  and  _72
REMARK   29  A    between atoms: _72  and  _73
REMARK   30  A    between atoms: _79  and  _81
REMARK   31  A    between atoms: _81  and  _82
REMARK   32  A    between atoms: _81  and  _84
REMARK   33  A    between atoms: _84  and  _85
REMARK   34  A    between atoms: _88  and  _90
REMARK   35  A    between atoms: _90  and  _91
REMARK   36  A    between atoms: _90  and  _93
REMARK   37  A    between atoms: _93  and  _94
REMARK   38  A    between atoms: _96  and  _98
REMARK   39  A    between atoms: _98  and  _99
REMARK   40  A    between atoms: _98  and  _101
REMARK   41  A    between atoms: _104  and  _106
REMARK   42  A    between atoms: _106  and  _107
REMARK   43  A    between atoms: _109  and  _111
REMARK   44  A    between atoms: _111  and  _112
REMARK   45  A    between atoms: _111  and  _114
REMARK   46  A    between atoms: _114  and  _115
REMARK   47  A    between atoms: _121  and  _123
REMARK   48  A    between atoms: _123  and  _124
REMARK   49  A    between atoms: _123  and  _126
REMARK   50  A    between atoms: _129  and  _131
REMARK   51  A    between atoms: _131  and  _132
REMARK   52  A    between atoms: _131  and  _134
REMARK   53  A    between atoms: _134  and  _135
REMARK   54  A    between atoms: _135  and  _136
REMARK   55  A    between atoms: _136  and  _137
REMARK   56  A    between atoms: _146  and  _148
REMARK   57  A    between atoms: _148  and  _149
REMARK   58  A    between atoms: _148  and  _151
REMARK   59  A    between atoms: _151  and  _152
REMARK   60  A    between atoms: _158  and  _160
REMARK   61  A    between atoms: _160  and  _161
REMARK   62  A    between atoms: _160  and  _163
REMARK   63  A    between atoms: _163  and  _164
REMARK   64  A    between atoms: _164  and  _165
REMARK   65  A    between atoms: _168  and  _170
REMARK   66  A    between atoms: _170  and  _171
REMARK   67  A    between atoms: _170  and  _173
REMARK   68  A    between atoms: _173  and  _174
REMARK   69  A    between atoms: _174  and  _175
REMARK   70  A    between atoms: _178  and  _180
REMARK   71  A    between atoms: _180  and  _181
REMARK   72  A    between atoms: _180  and  _183
REMARK   73  A    between atoms: _183  and  _184
REMARK   74  A    between atoms: _187  and  _189
REMARK   75  A    between atoms: _189  and  _190
REMARK   76  A    between atoms: _189  and  _192
REMARK   77  A    between atoms: _192  and  _193
REMARK   78  A    between atoms: _193  and  _194
REMARK   79  A    between atoms: _197  and  _199
REMARK   80  A    between atoms: _199  and  _200
REMARK   81  A    between atoms: _199  and  _202
REMARK   82  A    between atoms: _202  and  _203
REMARK   83  A    between atoms: _203  and  _204
REMARK   84  A    between atoms: _207  and  _209
REMARK   85  A    between atoms: _209  and  _210
REMARK   86  A    between atoms: _209  and  _212
REMARK   87  A    between atoms: _212  and  _213
REMARK   88  A    between atoms: _218  and  _219
REMARK   89  A    between atoms: _221  and  _223
REMARK   90  A    between atoms: _223  and  _224
REMARK   91  A    between atoms: _223  and  _226
REMARK   92  A    between atoms: _226  and  _227
REMARK   93  A    between atoms: _237  and  _239
REMARK   94  A    between atoms: _239  and  _240
REMARK   95  A    between atoms: _239  and  _242
REMARK   96  A    between atoms: _242  and  _243
REMARK   97  A    between atoms: _246  and  _248
REMARK   98  A    between atoms: _248  and  _249
REMARK   99  A    between atoms: _248  and  _251
REMARK  100  A    between atoms: _251  and  _252
REMARK  101  A    between atoms: _252  and  _253
REMARK  102  A    between atoms: _253  and  _254
REMARK  103  A    between atoms: _263  and  _265
REMARK  104  A    between atoms: _265  and  _266
REMARK  105  A    between atoms: _265  and  _268
REMARK  106  A    between atoms: _268  and  _269
REMARK  107  A    between atoms: _274  and  _276
REMARK  108  A    between atoms: _276  and  _277
REMARK  109  A    between atoms: _276  and  _279
REMARK  110  A    between atoms: _279  and  _280
REMARK  111  A    between atoms: _283  and  _285
REMARK  112  A    between atoms: _285  and  _286
REMARK  113  A    between atoms: _285  and  _288
REMARK  114  A    between atoms: _288  and  _289
REMARK  115  A    between atoms: _289  and  _290
REMARK  116  A    between atoms: _295  and  _297
REMARK  117  A    between atoms: _297  and  _298
REMARK  118  A    between atoms: _297  and  _300
REMARK  119  A    between atoms: _300  and  _301
REMARK  120  A    between atoms: _304  and  _306
REMARK  121  A    between atoms: _306  and  _307
REMARK  122  A    between atoms: _306  and  _309
REMARK  123  A    between atoms: _311  and  _313
REMARK  124  A    between atoms: _313  and  _314
REMARK  125  A    between atoms: _313  and  _316
REMARK  126  A    between atoms: _316  and  _317
REMARK  127  A    between atoms: _320  and  _322
REMARK  128  A    between atoms: _322  and  _323
REMARK  129  A    between atoms: _322  and  _325
REMARK  130  A    between atoms: _325  and  _326
REMARK  131  A    between atoms: _331  and  _333
REMARK  132  A    between atoms: _333  and  _334
REMARK  133  A    between atoms: _333  and  _336
REMARK  134  A    between atoms: _336  and  _337
REMARK  135  A    between atoms: _337  and  _338
REMARK  136  A    between atoms: _343  and  _345
REMARK  137  A    between atoms: _345  and  _346
REMARK  138  A    between atoms: _345  and  _348
REMARK  139  A    between atoms: _348  and  _349
REMARK  140  A    between atoms: _352  and  _354
REMARK  141  A    between atoms: _354  and  _355
REMARK  142  A    between atoms: _354  and  _357
REMARK  143  A    between atoms: _357  and  _358
REMARK  144  A    between atoms: _361  and  _363
REMARK  145  A    between atoms: _363  and  _364
REMARK  146  A    between atoms: _363  and  _366
REMARK  147  A    between atoms: _366  and  _367
REMARK  148  A    between atoms: _367  and  _368
REMARK  149  A    between atoms: _368  and  _369
REMARK  150  A    between atoms: _378  and  _380
REMARK  151  A    between atoms: _380  and  _381
REMARK  152  A    between atoms: _380  and  _383
REMARK  153  A    between atoms: _383  and  _384
REMARK  154  A    between atoms: _384  and  _385
REMARK  155  A    between atoms: _388  and  _390
REMARK  156  A    between atoms: _390  and  _391
REMARK  157  A    between atoms: _390  and  _393
REMARK  158  A    between atoms: _393  and  _394
REMARK  159  A    between atoms: _396  and  _398
REMARK  160  A    between atoms: _398  and  _399
REMARK  161  A    between atoms: _398  and  _401
REMARK  162  A    between atoms: _401  and  _402
REMARK  163  A    between atoms: _405  and  _407
REMARK  164  A    between atoms: _407  and  _408
REMARK  165  A    between atoms: _407  and  _410
REMARK  166  A    between atoms: _410  and  _411
REMARK  167  A    between atoms: _411  and  _412
REMARK  168  A    between atoms: _412  and  _413
REMARK  169  A    between atoms: _422  and  _424
REMARK  170  A    between atoms: _424  and  _425
REMARK  171  A    between atoms: _424  and  _427
REMARK  172  A    between atoms: _427  and  _428
REMARK  173  A    between atoms: _433  and  _435
REMARK  174  A    between atoms: _435  and  _436
REMARK  175  A    between atoms: _435  and  _438
REMARK  176  A    between atoms: _438  and  _439
REMARK  177  A    between atoms: _442  and  _444
REMARK  178  A    between atoms: _444  and  _445
REMARK  179  A    between atoms: _444  and  _447
REMARK  180  A    between atoms: _447  and  _448
REMARK  181  A    between atoms: _453  and  _454
REMARK  182  A    between atoms: _456  and  _458
REMARK  183  A    between atoms: _458  and  _459
REMARK  184  A    between atoms: _458  and  _461
REMARK  185  A    between atoms: _461  and  _462
REMARK  186  A    between atoms: _465  and  _467
REMARK  187  A    between atoms: _467  and  _468
REMARK  188  A    between atoms: _467  and  _470
REMARK  189  A    between atoms: _470  and  _471
REMARK  190  A    between atoms: _471  and  _472
REMARK  191  A    between atoms: _477  and  _479
REMARK  192  A    between atoms: _479  and  _480
REMARK  193  A    between atoms: _479  and  _482
REMARK  194  A    between atoms: _482  and  _483
REMARK  195  A    between atoms: _483  and  _484
REMARK  196  A    between atoms: _484  and  _485
REMARK  197  A    between atoms: _494  and  _496
REMARK  198  A    between atoms: _496  and  _497
REMARK  199  A    between atoms: _496  and  _499
REMARK  200  A    between atoms: _499  and  _500
REMARK  201  A    between atoms: _505  and  _506
REMARK  202  A    between atoms: _508  and  _510
REMARK  203  A    between atoms: _510  and  _511
REMARK  204  A    between atoms: _513  and  _515
REMARK  205  A    between atoms: _515  and  _516
REMARK  206  A    between atoms: _515  and  _518
REMARK  207  A    between atoms: _518  and  _519
REMARK  208  A    between atoms: _524  and  _526
REMARK  209  A    between atoms: _526  and  _527
REMARK  210  A    between atoms: _526  and  _529
REMARK  211  A    between atoms: _529  and  _530
REMARK  212  A    between atoms: _530  and  _531
REMARK  213  A    between atoms: _536  and  _538
REMARK  214  A    between atoms: _538  and  _539
REMARK  215  A    between atoms: _538  and  _541
REMARK  216  A    between atoms: _541  and  _542
REMARK  217  A    between atoms: _548  and  _550
REMARK  218  A    between atoms: _550  and  _551
REMARK  219  A    between atoms: _554  and  _556
REMARK  220  A    between atoms: _556  and  _557
REMARK  221  A    between atoms: _556  and  _559
REMARK  222  A    between atoms: _559  and  _560
REMARK  223  A    between atoms: _565  and  _566
REMARK  224  A    between atoms: _568  and  _570
REMARK  225  A    between atoms: _570  and  _571
REMARK  226  A    between atoms: _570  and  _573
REMARK  227  A    between atoms: _573  and  _574
REMARK  228  A    between atoms: _579  and  _580
REMARK  229  A    between atoms: _582  and  _584
REMARK  230  A    between atoms: _584  and  _585
REMARK  231  A    between atoms: _584  and  _587
REMARK  232  A    between atoms: _587  and  _588
REMARK  233  A    between atoms: _591  and  _593
REMARK  234  A    between atoms: _593  and  _594
REMARK  235  A    between atoms: _593  and  _596
REMARK  236  A    between atoms: _596  and  _597
REMARK  237  A    between atoms: _607  and  _609
REMARK  238  A    between atoms: _609  and  _610
REMARK  239  A    between atoms: _613  and  _615
REMARK  240  A    between atoms: _615  and  _616
REMARK  241  A    between atoms: _619  and  _621
REMARK  242  A    between atoms: _621  and  _622
REMARK  243  A    between atoms: _621  and  _624
REMARK  244  A    between atoms: _624  and  _625
REMARK  245  A    between atoms: _625  and  _626
REMARK  246  A    between atoms: _631  and  _633
REMARK  247  A    between atoms: _633  and  _634
REMARK  248  A    between atoms: _633  and  _636
REMARK  249  A    between atoms: _636  and  _637
REMARK  250  A    between atoms: _640  and  _642
REMARK  251  A    between atoms: _642  and  _643
REMARK  252  A    between atoms: _642  and  _645
REMARK  253  A    between atoms: _645  and  _646
REMARK  254  A    between atoms: _649  and  _651
REMARK  255  A    between atoms: _651  and  _652
REMARK  256  A    between atoms: _651  and  _654
REMARK  257  A    between atoms: _654  and  _655
REMARK  258  A    between atoms: _655  and  _656
REMARK  259  A    between atoms: _661  and  _663
REMARK  260  A    between atoms: _663  and  _664
REMARK  261  A    between atoms: _663  and  _666
REMARK  262  A    between atoms: _666  and  _667
REMARK  263  A    between atoms: _667  and  _668
REMARK  264  A    between atoms: _668  and  _669
REMARK  265  A    between atoms: _678  and  _680
REMARK  266  A    between atoms: _680  and  _681
REMARK  267  A    between atoms: _680  and  _683
REMARK  268  A    between atoms: _683  and  _684
REMARK  269  A    between atoms: _684  and  _685
REMARK  270  A    between atoms: _685  and  _686
REMARK  271  A    between atoms: _686  and  _687
REMARK  272  A    between atoms: _691  and  _693
REMARK  273  A    between atoms: _693  and  _694
REMARK  274  A    between atoms: _693  and  _696
REMARK  275  A    between atoms: _696  and  _697
REMARK  276  A    between atoms: _707  and  _709
REMARK  277  A    between atoms: _709  and  _710
REMARK  278  A    between atoms: _713  and  _715
REMARK  279  A    between atoms: _715  and  _716
REMARK  280  A    between atoms: _719  and  _721
REMARK  281  A    between atoms: _721  and  _722
REMARK  282  A    between atoms: _721  and  _724
REMARK  283  A    between atoms: _724  and  _725
REMARK  284  A    between atoms: _725  and  _726
REMARK  285  A    between atoms: _726  and  _727
REMARK  286  A    between atoms: _736  and  _738
REMARK  287  A    between atoms: _738  and  _739
REMARK  288  A    between atoms: _738  and  _741
REMARK  289  A    between atoms: _744  and  _746
REMARK  290  A    between atoms: _746  and  _747
REMARK  291  A    between atoms: _750  and  _752
REMARK  292  A    between atoms: _752  and  _753
REMARK  293  A    between atoms: _752  and  _755
REMARK  294  A    between atoms: _755  and  _756
REMARK  295  A    between atoms: _756  and  _757
REMARK  296  A    between atoms: _760  and  _762
REMARK  297  A    between atoms: _762  and  _763
REMARK  298  A    between atoms: _762  and  _765
REMARK  299  A    between atoms: _765  and  _766
REMARK  300  A    between atoms: _766  and  _767
REMARK  301  A    between atoms: _772  and  _774
REMARK  302  A    between atoms: _774  and  _775
REMARK  303  A    between atoms: _774  and  _777
REMARK  304  A    between atoms: _777  and  _778
REMARK  305  A    between atoms: _781  and  _783
REMARK  306  A    between atoms: _783  and  _784
REMARK  307  A    between atoms: _783  and  _786
REMARK  308  A    between atoms: _786  and  _787
REMARK  309  A    between atoms: _787  and  _788
REMARK  310  A    between atoms: _788  and  _789
REMARK  311  A    between atoms: _798  and  _800
REMARK  312  A    between atoms: _800  and  _801
REMARK  313  A    between atoms: _800  and  _803
REMARK  314  A    between atoms: _803  and  _804
REMARK  315  A    between atoms: _807  and  _809
REMARK  316  A    between atoms: _809  and  _810
REMARK  317  A    between atoms: _809  and  _812
REMARK  318  A    between atoms: _812  and  _813
REMARK  319  A    between atoms: _818  and  _819
REMARK  320  A    between atoms: _821  and  _823
REMARK  321  A    between atoms: _823  and  _824
REMARK  322  A    between atoms: _823  and  _826
REMARK  323  A    between atoms: _826  and  _827
REMARK  324  A    between atoms: _830  and  _832
REMARK  325  A    between atoms: _832  and  _833
REMARK  326  A    between atoms: _832  and  _835
REMARK  327  A    between atoms: _835  and  _836
REMARK  328  A    between atoms: _839  and  _841
REMARK  329  A    between atoms: _841  and  _842
REMARK  330  A    between atoms: _841  and  _844
REMARK  331  A    between atoms: _846  and  _848
REMARK  332  A    between atoms: _848  and  _849
REMARK  333  A    between atoms: _848  and  _851
REMARK  334  A    between atoms: _854  and  _856
REMARK  335  A    between atoms: _856  and  _857
REMARK  336  A    between atoms: _856  and  _859
REMARK  337  A    between atoms: _859  and  _860
REMARK  338  A    between atoms: _860  and  _861
REMARK  339  A    between atoms: _864  and  _866
REMARK  340  A    between atoms: _866  and  _867
REMARK  341  A    between atoms: _866  and  _869
REMARK  342  A    between atoms: _869  and  _870
REMARK  343  A    between atoms: _880  and  _882
REMARK  344  A    between atoms: _882  and  _883
REMARK  345  A    between atoms: _882  and  _885
REMARK  346  A    between atoms: _885  and  _886
REMARK  347  A    between atoms: _889  and  _891
REMARK  348  A    between atoms: _891  and  _892
REMARK  349  A    between atoms: _891  and  _894
REMARK  350  A    between atoms: _894  and  _895
REMARK  351  A    between atoms: _900  and  _901
REMARK                            x       y       z     vdW  Elec       q    Type
REMARK                         _______ _______ _______ _____ _____    ______ ____
ROOT
ATOM      1  CA  GLU A   4      15.704  21.060  38.868  0.00  0.00    +0.149 C 
ENDROOT
BRANCH   1   3
ATOM      2  C   VAL A   3      15.105  21.719  36.606  0.00  0.00    +0.241 C 
ATOM      3  N   GLU A   4      14.730  21.444  37.852  0.00  0.00    -0.297 N 
ATOM      4  H   GLU A   4      13.723  21.504  38.107  0.00  0.00    +0.150 HD
ATOM      5  O   VAL A   3      16.278  21.673  36.239  0.00  0.00    -0.273 OA
BRANCH   2   6
ATOM      6  CA  VAL A   3      13.999  22.096  35.625  0.00  0.00    +0.149 C 
BRANCH   6   8
ATOM      7  C   CYS A   2      12.627  20.100  35.783  0.00  0.00    +0.242 C 
ATOM      8  N   VAL A   3      12.747  21.415  35.935  0.00  0.00    -0.297 N 
ATOM      9  H   VAL A   3      11.936  21.967  36.280  0.00  0.00    +0.150 HD
ATOM     10  O   CYS A   2      13.564  19.380  35.435  0.00  0.00    -0.273 OA
BRANCH   7  11
ATOM     11  CA  CYS A   2      11.253  19.503  36.073  0.00  0.00    +0.160 C 
BRANCH  11  14
ATOM     12  C   THR A   1      11.448  19.633  38.492  0.00  0.00    +0.241 C 
ATOM     13  O   THR A   1      12.574  19.136  38.468  0.00  0.00    -0.274 OA
ATOM     14  N   CYS A   2      10.753  19.894  37.389  0.00  0.00    -0.296 N 
ATOM     15  H   CYS A   2       9.839  20.384  37.464  0.00  0.00    +0.150 HD
BRANCH  12  16
ATOM     16  CA  THR A   1      10.781  19.978  39.823  0.00  0.00    +0.172 C 
BRANCH  16  17
ATOM     17  N   THR A   1      10.251  21.337  39.877  0.00  0.00    -0.236 NA
ATOM     18  H   THR A   1       9.295  21.486  40.257  0.00  0.00    +0.142 HD
ENDBRANCH  16  17
BRANCH  16  19
ATOM     19  CB  THR A   1       9.676  18.944  40.111  0.00  0.00    +0.135 C 
ATOM     20  CG2 THR A   1      10.243  17.534  40.083  0.00  0.00    +0.034 C 
BRANCH  19  21
ATOM     21  OG1 THR A   1       9.106  19.199  41.401  0.00  0.00    -0.383 OA
ATOM     22  HG1 THR A   1       8.718  20.110  41.415  0.00  0.00    +0.210 HD
ENDBRANCH  19  21
ENDBRANCH  16  19
ENDBRANCH  12  16
ENDBRANCH  11  14
BRANCH  11  23
ATOM     23  CB  CYS A   2      10.266  19.888  34.968  0.00  0.00    +0.098 C 
ATOM     24  SG  CYS A   2      10.727  19.272  33.330  0.00  0.00    -0.080 S 
ENDBRANCH  11  23
ENDBRANCH   7  11
ENDBRANCH   6   8
BRANCH   6  25
ATOM     25  CB  VAL A   3      13.833  23.633  35.585  0.00  0.00    +0.027 C 
ATOM     26  CG2 VAL A   3      13.334  24.156  36.920  0.00  0.00    +0.002 C 
ATOM     27  CG1 VAL A   3      12.890  24.039  34.461  0.00  0.00    +0.002 C 
ENDBRANCH   6  25
ENDBRANCH   2   6
ENDBRANCH   1   3
BRANCH   1  28
ATOM     28  C   GLU A   4      16.334  19.702  38.553  0.00  0.00    +0.241 C 
ATOM     29  O   GLU A   4      17.549  19.536  38.662  0.00  0.00    -0.273 OA
ATOM     30  N   TRP A   5      15.511  18.737  38.152  0.00  0.00    -0.297 N 
ATOM     31  H   TRP A   5      14.487  18.915  38.116  0.00  0.00    +0.150 HD
BRANCH  30  32
ATOM     32  CA  TRP A   5      16.031  17.429  37.761  0.00  0.00    +0.153 C 
BRANCH  32  33
ATOM     33  C   TRP A   5      16.867  17.516  36.486  0.00  0.00    +0.241 C 
ATOM     34  O   TRP A   5      17.928  16.904  36.395  0.00  0.00    -0.273 OA
ATOM     35  N   LEU A   6      16.396  18.285  35.507  0.00  0.00    -0.298 N 
ATOM     36  H   LEU A   6      15.485  18.771  35.628  0.00  0.00    +0.150 HD
BRANCH  35  37
ATOM     37  CA  LEU A   6      17.145  18.454  34.264  0.00  0.00    +0.137 C 
BRANCH  37  38
ATOM     38  C   LEU A   6      18.541  19.009  34.540  0.00  0.00    +0.227 C 
ATOM     39  O   LEU A   6      19.535  18.511  34.008  0.00  0.00    -0.286 OA
ENDBRANCH  37  38
BRANCH  37  40
ATOM     40  CB  LEU A   6      16.388  19.356  33.282  0.00  0.00    +0.028 C 
BRANCH  40  41
ATOM     41  CG  LEU A   6      17.068  19.668  31.943  0.00  0.00    +0.002 C 
ATOM     42  CD2 LEU A   6      17.553  18.398  31.246  0.00  0.00    +0.000 C 
ATOM     43  CD1 LEU A   6      16.136  20.460  31.031  0.00  0.00    +0.000 C 
ENDBRANCH  40  41
ENDBRANCH  37  40
ENDBRANCH  35  37
ENDBRANCH  32  33
BRANCH  32  44
ATOM     44  CB  TRP A   5      14.906  16.401  37.603  0.00  0.00    +0.057 C 
BRANCH  44  45
ATOM     45  CG  TRP A   5      14.425  15.851  38.910  0.00  0.00    -0.002 A 
ATOM     46  CD2 TRP A   5      15.143  14.974  39.789  0.00  0.00    +0.013 A 
ATOM     47  CE2 TRP A   5      14.310  14.721  40.897  0.00  0.00    +0.056 A 
ATOM     48  CZ2 TRP A   5      14.700  13.898  41.951  0.00  0.00    +0.017 A 
ATOM     49  CH2 TRP A   5      15.941  13.329  41.881  0.00  0.00    +0.001 A 
ATOM     50  CZ3 TRP A   5      16.791  13.560  40.792  0.00  0.00    +0.000 A 
ATOM     51  NE1 TRP A   5      13.144  15.412  40.701  0.00  0.00    -0.352 N 
ATOM     52  HE1 TRP A   5      12.331  15.422  41.349  0.00  0.00    +0.166 HD
ATOM     53  CE3 TRP A   5      16.406  14.377  39.744  0.00  0.00    +0.001 A 
ATOM     54  CD1 TRP A   5      13.223  16.090  39.508  0.00  0.00    +0.068 A 
ENDBRANCH  44  45
ENDBRANCH  32  44
ENDBRANCH  30  32
ENDBRANCH   1  28
BRANCH   1  55
ATOM     55  CB  GLU A   4      15.070  21.065  40.260  0.00  0.00    +0.041 C 
BRANCH  55  56
ATOM     56  CG  GLU A   4      14.701  22.459  40.750  0.00  0.00    +0.116 C 
BRANCH  56  57
ATOM     57  CD  GLU A   4      13.916  22.442  42.047  0.00  0.00    +0.365 C 
ATOM     58  OE2 GLU A   4      13.812  21.365  42.674  0.00  0.00    -0.246 OA
ATOM     59  OE1 GLU A   4      13.398  23.511  42.435  0.00  0.00    -0.246 OA
ENDBRANCH  56  57
ENDBRANCH  55  56
ENDBRANCH   1  55
TORSDOF 23
REMARK  Name = ../refined-set-2016/4o2c/4o2c_pocket.pdb
REMARK  351 active torsions:
REMARK  status: ('A' for Active; 'I' for Inactive)
REMARK    1  A    between atoms: _1  and  _3
REMARK    2  A    between atoms: _3  and  _4
REMARK    3  A    between atoms: _3  and  _6
REMARK    4  A    between atoms: _6  and  _7
REMARK    5  A    between atoms: _7  and  _8
REMARK    6  A    between atoms: _10  and  _12
REMARK    7  A    between atoms: _12  and  _13
REMARK    8  A    between atoms: _12  and  _15
REMARK    9  A    between atoms: _15  and  _16
REMARK   10  A    between atoms: _16  and  _17
REMARK   11  A    between atoms: _17  and  _18
REMARK   12  A    between atoms: _27  and  _29
REMARK   13  A    between atoms: _29  and  _30
REMARK   14  A    between atoms: _29  and  _32
REMARK   15  A    between atoms: _32  and  _33
REMARK   16  A    between atoms: _38  and  _39
REMARK   17  A    between atoms: _41  and  _43
REMARK   18  A    between atoms: _43  and  _44
REMARK   19  A    between atoms: _43  and  _46
REMARK   20  A    between atoms: _46  and  _47
REMARK   21  A    between atoms: _53  and  _55
REMARK   22  A    between atoms: _55  and  _56
REMARK   23  A    between atoms: _55  and  _58
REMARK   24  A    between atoms: _58  and  _59
REMARK   25  A    between atoms: _64  and  _65
REMARK   26  A    between atoms: _67  and  _69
REMARK   27  A    between atoms: _69  and  _70
REMARK   28  A    between atoms: _69  and  _72
REMARK   29  A    between atoms: _72  and  _73
REMARK   30  A    between atoms: _79  and  _81
REMARK   31  A    between atoms: _81  and  _82
REMARK   32  A    between atoms: _81  and  _84
REMARK   33  A    between atoms: _84  and  _85
REMARK   34  A    between atoms: _88  and  _90
REMARK   35  A    between atoms: _90  and  _91
REMARK   36  A    between atoms: _90  and  _93
REMARK   37  A    between atoms: _93  and  _94
REMARK   38  A    between atoms: _96  and  _98
REMARK   39  A    between atoms: _98  and  _99
REMARK   40  A    between atoms: _98  and  _101
REMARK   41  A    between atoms: _104  and  _106
REMARK   42  A    between atoms: _106  and  _107
REMARK   43  A    between atoms: _109  and  _111
REMARK   44  A    between atoms: _111  and  _112
REMARK   45  A    between atoms: _111  and  _114
REMARK   46  A    between atoms: _114  and  _115
REMARK   47  A    between atoms: _121  and  _123
REMARK   48  A    between atoms: _123  and  _124
REMARK   49  A    between atoms: _123  and  _126
REMARK   50  A    between atoms: _129  and  _131
REMARK   51  A    between atoms: _131  and  _132
REMARK   52  A    between atoms: _131  and  _134
REMARK   53  A    between atoms: _134  and  _135
REMARK   54  A    between atoms: _135  and  _136
REMARK   55  A    between atoms: _136  and  _137
REMARK   56  A    between atoms: _146  and  _148
REMARK   57  A    between atoms: _148  and  _149
REMARK   58  A    between atoms: _148  and  _151
REMARK   59  A    between atoms: _151  and  _152
REMARK   60  A    between atoms: _158  and  _160
REMARK   61  A    between atoms: _160  and  _161
REMARK   62  A    between atoms: _160  and  _163
REMARK   63  A    between atoms: _163  and  _164
REMARK   64  A    between atoms: _164  and  _165
REMARK   65  A    between atoms: _168  and  _170
REMARK   66  A    between atoms: _170  and  _171
REMARK   67  A    between atoms: _170  and  _173
REMARK   68  A    between atoms: _173  and  _174
REMARK   69  A    between atoms: _174  and  _175
REMARK   70  A    between atoms: _178  and  _180
REMARK   71  A    between atoms: _180  and  _181
REMARK   72  A    between atoms: _180  and  _183
REMARK   73  A    between atoms: _183  and  _184
REMARK   74  A    between atoms: _187  and  _189
REMARK   75  A    between atoms: _189  and  _190
REMARK   76  A    between atoms: _189  and  _192
REMARK   77  A    between atoms: _192  and  _193
REMARK   78  A    between atoms: _193  and  _194
REMARK   79  A    between atoms: _197  and  _199
REMARK   80  A    between atoms: _199  and  _200
REMARK   81  A    between atoms: _199  and  _202
REMARK   82  A    between atoms: _202  and  _203
REMARK   83  A    between atoms: _203  and  _204
REMARK   84  A    between atoms: _207  and  _209
REMARK   85  A    between atoms: _209  and  _210
REMARK   86  A    between atoms: _209  and  _212
REMARK   87  A    between atoms: _212  and  _213
REMARK   88  A    between atoms: _218  and  _219
REMARK   89  A    between atoms: _221  and  _223
REMARK   90  A    between atoms: _223  and  _224
REMARK   91  A    between atoms: _223  and  _226
REMARK   92  A    between atoms: _226  and  _227
REMARK   93  A    between atoms: _237  and  _239
REMARK   94  A    between atoms: _239  and  _240
REMARK   95  A    between atoms: _239  and  _242
REMARK   96  A    between atoms: _242  and  _243
REMARK   97  A    between atoms: _246  and  _248
REMARK   98  A    between atoms: _248  and  _249
REMARK   99  A    between atoms: _248  and  _251
REMARK  100  A    between atoms: _251  and  _252
REMARK  101  A    between atoms: _252  and  _253
REMARK  102  A    between atoms: _253  and  _254
REMARK  103  A    between atoms: _263  and  _265
REMARK  104  A    between atoms: _265  and  _266
REMARK  105  A    between atoms: _265  and  _268
REMARK  106  A    between atoms: _268  and  _269
REMARK  107  A    between atoms: _274  and  _276
REMARK  108  A    between atoms: _276  and  _277
REMARK  109  A    between atoms: _276  and  _279
REMARK  110  A    between atoms: _279  and  _280
REMARK  111  A    between atoms: _283  and  _285
REMARK  112  A    between atoms: _285  and  _286
REMARK  113  A    between atoms: _285  and  _288
REMARK  114  A    between atoms: _288  and  _289
REMARK  115  A    between atoms: _289  and  _290
REMARK  116  A    between atoms: _295  and  _297
REMARK  117  A    between atoms: _297  and  _298
REMARK  118  A    between atoms: _297  and  _300
REMARK  119  A    between atoms: _300  and  _301
REMARK  120  A    between atoms: _304  and  _306
REMARK  121  A    between atoms: _306  and  _307
REMARK  122  A    between atoms: _306  and  _309
REMARK  123  A    between atoms: _311  and  _313
REMARK  124  A    between atoms: _313  and  _314
REMARK  125  A    between atoms: _313  and  _316
REMARK  126  A    between atoms: _316  and  _317
REMARK  127  A    between atoms: _320  and  _322
REMARK  128  A    between atoms: _322  and  _323
REMARK  129  A    between atoms: _322  and  _325
REMARK  130  A    between atoms: _325  and  _326
REMARK  131  A    between atoms: _331  and  _333
REMARK  132  A    between atoms: _333  and  _334
REMARK  133  A    between atoms: _333  and  _336
REMARK  134  A    between atoms: _336  and  _337
REMARK  135  A    between atoms: _337  and  _338
REMARK  136  A    between atoms: _343  and  _345
REMARK  137  A    between atoms: _345  and  _346
REMARK  138  A    between atoms: _345  and  _348
REMARK  139  A    between atoms: _348  and  _349
REMARK  140  A    between atoms: _352  and  _354
REMARK  141  A    between atoms: _354  and  _355
REMARK  142  A    between atoms: _354  and  _357
REMARK  143  A    between atoms: _357  and  _358
REMARK  144  A    between atoms: _361  and  _363
REMARK  145  A    between atoms: _363  and  _364
REMARK  146  A    between atoms: _363  and  _366
REMARK  147  A    between atoms: _366  and  _367
REMARK  148  A    between atoms: _367  and  _368
REMARK  149  A    between atoms: _368  and  _369
REMARK  150  A    between atoms: _378  and  _380
REMARK  151  A    between atoms: _380  and  _381
REMARK  152  A    between atoms: _380  and  _383
REMARK  153  A    between atoms: _383  and  _384
REMARK  154  A    between atoms: _384  and  _385
REMARK  155  A    between atoms: _388  and  _390
REMARK  156  A    between atoms: _390  and  _391
REMARK  157  A    between atoms: _390  and  _393
REMARK  158  A    between atoms: _393  and  _394
REMARK  159  A    between atoms: _396  and  _398
REMARK  160  A    between atoms: _398  and  _399
REMARK  161  A    between atoms: _398  and  _401
REMARK  162  A    between atoms: _401  and  _402
REMARK  163  A    between atoms: _405  and  _407
REMARK  164  A    between atoms: _407  and  _408
REMARK  165  A    between atoms: _407  and  _410
REMARK  166  A    between atoms: _410  and  _411
REMARK  167  A    between atoms: _411  and  _412
REMARK  168  A    between atoms: _412  and  _413
REMARK  169  A    between atoms: _422  and  _424
REMARK  170  A    between atoms: _424  and  _425
REMARK  171  A    between atoms: _424  and  _427
REMARK  172  A    between atoms: _427  and  _428
REMARK  173  A    between atoms: _433  and  _435
REMARK  174  A    between atoms: _435  and  _436
REMARK  175  A    between atoms: _435  and  _438
REMARK  176  A    between atoms: _438  and  _439
REMARK  177  A    between atoms: _442  and  _444
REMARK  178  A    between atoms: _444  and  _445
REMARK  179  A    between atoms: _444  and  _447
REMARK  180  A    between atoms: _447  and  _448
REMARK  181  A    between atoms: _453  and  _454
REMARK  182  A    between atoms: _456  and  _458
REMARK  183  A    between atoms: _458  and  _459
REMARK  184  A    between atoms: _458  and  _461
REMARK  185  A    between atoms: _461  and  _462
REMARK  186  A    between atoms: _465  and  _467
REMARK  187  A    between atoms: _467  and  _468
REMARK  188  A    between atoms: _467  and  _470
REMARK  189  A    between atoms: _470  and  _471
REMARK  190  A    between atoms: _471  and  _472
REMARK  191  A    between atoms: _477  and  _479
REMARK  192  A    between atoms: _479  and  _480
REMARK  193  A    between atoms: _479  and  _482
REMARK  194  A    between atoms: _482  and  _483
REMARK  195  A    between atoms: _483  and  _484
REMARK  196  A    between atoms: _484  and  _485
REMARK  197  A    between atoms: _494  and  _496
REMARK  198  A    between atoms: _496  and  _497
REMARK  199  A    between atoms: _496  and  _499
REMARK  200  A    between atoms: _499  and  _500
REMARK  201  A    between atoms: _505  and  _506
REMARK  202  A    between atoms: _508  and  _510
REMARK  203  A    between atoms: _510  and  _511
REMARK  204  A    between atoms: _513  and  _515
REMARK  205  A    between atoms: _515  and  _516
REMARK  206  A    between atoms: _515  and  _518
REMARK  207  A    between atoms: _518  and  _519
REMARK  208  A    between atoms: _524  and  _526
REMARK  209  A    between atoms: _526  and  _527
REMARK  210  A    between atoms: _526  and  _529
REMARK  211  A    between atoms: _529  and  _530
REMARK  212  A    between atoms: _530  and  _531
REMARK  213  A    between atoms: _536  and  _538
REMARK  214  A    between atoms: _538  and  _539
REMARK  215  A    between atoms: _538  and  _541
REMARK  216  A    between atoms: _541  and  _542
REMARK  217  A    between atoms: _548  and  _550
REMARK  218  A    between atoms: _550  and  _551
REMARK  219  A    between atoms: _554  and  _556
REMARK  220  A    between atoms: _556  and  _557
REMARK  221  A    between atoms: _556  and  _559
REMARK  222  A    between atoms: _559  and  _560
REMARK  223  A    between atoms: _565  and  _566
REMARK  224  A    between atoms: _568  and  _570
REMARK  225  A    between atoms: _570  and  _571
REMARK  226  A    between atoms: _570  and  _573
REMARK  227  A    between atoms: _573  and  _574
REMARK  228  A    between atoms: _579  and  _580
REMARK  229  A    between atoms: _582  and  _584
REMARK  230  A    between atoms: _584  and  _585
REMARK  231  A    between atoms: _584  and  _587
REMARK  232  A    between atoms: _587  and  _588
REMARK  233  A    between atoms: _591  and  _593
REMARK  234  A    between atoms: _593  and  _594
REMARK  235  A    between atoms: _593  and  _596
REMARK  236  A    between atoms: _596  and  _597
REMARK  237  A    between atoms: _607  and  _609
REMARK  238  A    between atoms: _609  and  _610
REMARK  239  A    between atoms: _613  and  _615
REMARK  240  A    between atoms: _615  and  _616
REMARK  241  A    between atoms: _619  and  _621
REMARK  242  A    between atoms: _621  and  _622
REMARK  243  A    between atoms: _621  and  _624
REMARK  244  A    between atoms: _624  and  _625
REMARK  245  A    between atoms: _625  and  _626
REMARK  246  A    between atoms: _631  and  _633
REMARK  247  A    between atoms: _633  and  _634
REMARK  248  A    between atoms: _633  and  _636
REMARK  249  A    between atoms: _636  and  _637
REMARK  250  A    between atoms: _640  and  _642
REMARK  251  A    between atoms: _642  and  _643
REMARK  252  A    between atoms: _642  and  _645
REMARK  253  A    between atoms: _645  and  _646
REMARK  254  A    between atoms: _649  and  _651
REMARK  255  A    between atoms: _651  and  _652
REMARK  256  A    between atoms: _651  and  _654
REMARK  257  A    between atoms: _654  and  _655
REMARK  258  A    between atoms: _655  and  _656
REMARK  259  A    between atoms: _661  and  _663
REMARK  260  A    between atoms: _663  and  _664
REMARK  261  A    between atoms: _663  and  _666
REMARK  262  A    between atoms: _666  and  _667
REMARK  263  A    between atoms: _667  and  _668
REMARK  264  A    between atoms: _668  and  _669
REMARK  265  A    between atoms: _678  and  _680
REMARK  266  A    between atoms: _680  and  _681
REMARK  267  A    between atoms: _680  and  _683
REMARK  268  A    between atoms: _683  and  _684
REMARK  269  A    between atoms: _684  and  _685
REMARK  270  A    between atoms: _685  and  _686
REMARK  271  A    between atoms: _686  and  _687
REMARK  272  A    between atoms: _691  and  _693
REMARK  273  A    between atoms: _693  and  _694
REMARK  274  A    between atoms: _693  and  _696
REMARK  275  A    between atoms: _696  and  _697
REMARK  276  A    between atoms: _707  and  _709
REMARK  277  A    between atoms: _709  and  _710
REMARK  278  A    between atoms: _713  and  _715
REMARK  279  A    between atoms: _715  and  _716
REMARK  280  A    between atoms: _719  and  _721
REMARK  281  A    between atoms: _721  and  _722
REMARK  282  A    between atoms: _721  and  _724
REMARK  283  A    between atoms: _724  and  _725
REMARK  284  A    between atoms: _725  and  _726
REMARK  285  A    between atoms: _726  and  _727
REMARK  286  A    between atoms: _736  and  _738
REMARK  287  A    between atoms: _738  and  _739
REMARK  288  A    between atoms: _738  and  _741
REMARK  289  A    between atoms: _744  and  _746
REMARK  290  A    between atoms: _746  and  _747
REMARK  291  A    between atoms: _750  and  _752
REMARK  292  A    between atoms: _752  and  _753
REMARK  293  A    between atoms: _752  and  _755
REMARK  294  A    between atoms: _755  and  _756
REMARK  295  A    between atoms: _756  and  _757
REMARK  296  A    between atoms: _760  and  _762
REMARK  297  A    between atoms: _762  and  _763
REMARK  298  A    between atoms: _762  and  _765
REMARK  299  A    between atoms: _765  and  _766
REMARK  300  A    between atoms: _766  and  _767
REMARK  301  A    between atoms: _772  and  _774
REMARK  302  A    between atoms: _774  and  _775
REMARK  303  A    between atoms: _774  and  _777
REMARK  304  A    between atoms: _777  and  _778
REMARK  305  A    between atoms: _781  and  _783
REMARK  306  A    between atoms: _783  and  _784
REMARK  307  A    between atoms: _783  and  _786
REMARK  308  A    between atoms: _786  and  _787
REMARK  309  A    between atoms: _787  and  _788
REMARK  310  A    between atoms: _788  and  _789
REMARK  311  A    between atoms: _798  and  _800
REMARK  312  A    between atoms: _800  and  _801
REMARK  313  A    between atoms: _800  and  _803
REMARK  314  A    between atoms: _803  and  _804
REMARK  315  A    between atoms: _807  and  _809
REMARK  316  A    between atoms: _809  and  _810
REMARK  317  A    between atoms: _809  and  _812
REMARK  318  A    between atoms: _812  and  _813
REMARK  319  A    between atoms: _818  and  _819
REMARK  320  A    between atoms: _821  and  _823
REMARK  321  A    between atoms: _823  and  _824
REMARK  322  A    between atoms: _823  and  _826
REMARK  323  A    between atoms: _826  and  _827
REMARK  324  A    between atoms: _830  and  _832
REMARK  325  A    between atoms: _832  and  _833
REMARK  326  A    between atoms: _832  and  _835
REMARK  327  A    between atoms: _835  and  _836
REMARK  328  A    between atoms: _839  and  _841
REMARK  329  A    between atoms: _841  and  _842
REMARK  330  A    between atoms: _841  and  _844
REMARK  331  A    between atoms: _846  and  _848
REMARK  332  A    between atoms: _848  and  _849
REMARK  333  A    between atoms: _848  and  _851
REMARK  334  A    between atoms: _854  and  _856
REMARK  335  A    between atoms: _856  and  _857
REMARK  336  A    between atoms: _856  and  _859
REMARK  337  A    between atoms: _859  and  _860
REMARK  338  A    between atoms: _860  and  _861
REMARK  339  A    between atoms: _864  and  _866
REMARK  340  A    between atoms: _866  and  _867
REMARK  341  A    between atoms: _866  and  _869
REMARK  342  A    between atoms: _869  and  _870
REMARK  343  A    between atoms: _880  and  _882
REMARK  344  A    between atoms: _882  and  _883
REMARK  345  A    between atoms: _882  and  _885
REMARK  346  A    between atoms: _885  and  _886
REMARK  347  A    between atoms: _889  and  _891
REMARK  348  A    between atoms: _891  and  _892
REMARK  349  A    between atoms: _891  and  _894
REMARK  350  A    between atoms: _894  and  _895
REMARK  351  A    between atoms: _900  and  _901
REMARK                            x       y       z     vdW  Elec       q    Type
REMARK                         _______ _______ _______ _____ _____    ______ ____
ROOT
ATOM      1  CG  TYR A   1      18.695  14.242  34.929  0.00  0.00    -0.020 A 
ATOM      2  CD2 TYR A   1      18.922  13.460  36.053  0.00  0.00    -0.001 A 
ATOM      3  CE2 TYR A   1      17.874  12.840  36.714  0.00  0.00    +0.036 A 
ATOM      4  CZ  TYR A   1      16.586  12.991  36.243  0.00  0.00    +0.134 A 
ATOM      5  CE1 TYR A   1      16.339  13.756  35.124  0.00  0.00    +0.036 A 
ATOM      6  CD1 TYR A   1      17.390  14.374  34.473  0.00  0.00    -0.001 A 
ENDROOT
BRANCH   4   7
ATOM      7  OH  TYR A   1      15.540  12.378  36.893  0.00  0.00    -0.506 OA
ATOM      8  HH  TYR A   1      14.899  13.065  37.205  0.00  0.00    +0.292 HD
ENDBRANCH   4   7
BRANCH   1   9
ATOM      9  CB  TYR A   1      19.837  14.914  34.202  0.00  0.00    +0.051 C 
BRANCH   9  10
ATOM     10  CA  TYR A   1      21.021  15.298  35.089  0.00  0.00    +0.137 C 
BRANCH  10  11
ATOM     11  N   TYR A   1      20.624  16.273  36.101  0.00  0.00    -0.239 NA
ATOM     12  H   TYR A   1      19.645  16.624  36.118  0.00  0.00    +0.142 HD
ENDBRANCH  10  11
BRANCH  10  13
ATOM     13  C   TYR A   1      22.143  15.840  34.212  0.00  0.00    +0.224 C 
ATOM     14  O   TYR A   1      23.100  15.130  33.902  0.00  0.00    -0.287 OA
ENDBRANCH  10  13
ENDBRANCH   9  10
ENDBRANCH   1   9
TORSDOF 5
REMARK  Name = ../refined-set-2016/4o2c/4o2c_pocket.pdb
REMARK  351 active torsions:
REMARK  status: ('A' for Active; 'I' for Inactive)
REMARK    1  A    between atoms: _1  and  _3
REMARK    2  A    between atoms: _3  and  _4
REMARK    3  A    between atoms: _3  and  _6
REMARK    4  A    between atoms: _6  and  _7
REMARK    5  A    between atoms: _7  and  _8
REMARK    6  A    between atoms: _10  and  _12
REMARK    7  A    between atoms: _12  and  _13
REMARK    8  A    between atoms: _12  and  _15
REMARK    9  A    between atoms: _15  and  _16
REMARK   10  A    between atoms: _16  and  _17
REMARK   11  A    between atoms: _17  and  _18
REMARK   12  A    between atoms: _27  and  _29
REMARK   13  A    between atoms: _29  and  _30
REMARK   14  A    between atoms: _29  and  _32
REMARK   15  A    between atoms: _32  and  _33
REMARK   16  A    between atoms: _38  and  _39
REMARK   17  A    between atoms: _41  and  _43
REMARK   18  A    between atoms: _43  and  _44
REMARK   19  A    between atoms: _43  and  _46
REMARK   20  A    between atoms: _46  and  _47
REMARK   21  A    between atoms: _53  and  _55
REMARK   22  A    between atoms: _55  and  _56
REMARK   23  A    between atoms: _55  and  _58
REMARK   24  A    between atoms: _58  and  _59
REMARK   25  A    between atoms: _64  and  _65
REMARK   26  A    between atoms: _67  and  _69
REMARK   27  A    between atoms: _69  and  _70
REMARK   28  A    between atoms: _69  and  _72
REMARK   29  A    between atoms: _72  and  _73
REMARK   30  A    between atoms: _79  and  _81
REMARK   31  A    between atoms: _81  and  _82
REMARK   32  A    between atoms: _81  and  _84
REMARK   33  A    between atoms: _84  and  _85
REMARK   34  A    between atoms: _88  and  _90
REMARK   35  A    between atoms: _90  and  _91
REMARK   36  A    between atoms: _90  and  _93
REMARK   37  A    between atoms: _93  and  _94
REMARK   38  A    between atoms: _96  and  _98
REMARK   39  A    between atoms: _98  and  _99
REMARK   40  A    between atoms: _98  and  _101
REMARK   41  A    between atoms: _104  and  _106
REMARK   42  A    between atoms: _106  and  _107
REMARK   43  A    between atoms: _109  and  _111
REMARK   44  A    between atoms: _111  and  _112
REMARK   45  A    between atoms: _111  and  _114
REMARK   46  A    between atoms: _114  and  _115
REMARK   47  A    between atoms: _121  and  _123
REMARK   48  A    between atoms: _123  and  _124
REMARK   49  A    between atoms: _123  and  _126
REMARK   50  A    between atoms: _129  and  _131
REMARK   51  A    between atoms: _131  and  _132
REMARK   52  A    between atoms: _131  and  _134
REMARK   53  A    between atoms: _134  and  _135
REMARK   54  A    between atoms: _135  and  _136
REMARK   55  A    between atoms: _136  and  _137
REMARK   56  A    between atoms: _146  and  _148
REMARK   57  A    between atoms: _148  and  _149
REMARK   58  A    between atoms: _148  and  _151
REMARK   59  A    between atoms: _151  and  _152
REMARK   60  A    between atoms: _158  and  _160
REMARK   61  A    between atoms: _160  and  _161
REMARK   62  A    between atoms: _160  and  _163
REMARK   63  A    between atoms: _163  and  _164
REMARK   64  A    between atoms: _164  and  _165
REMARK   65  A    between atoms: _168  and  _170
REMARK   66  A    between atoms: _170  and  _171
REMARK   67  A    between atoms: _170  and  _173
REMARK   68  A    between atoms: _173  and  _174
REMARK   69  A    between atoms: _174  and  _175
REMARK   70  A    between atoms: _178  and  _180
REMARK   71  A    between atoms: _180  and  _181
REMARK   72  A    between atoms: _180  and  _183
REMARK   73  A    between atoms: _183  and  _184
REMARK   74  A    between atoms: _187  and  _189
REMARK   75  A    between atoms: _189  and  _190
REMARK   76  A    between atoms: _189  and  _192
REMARK   77  A    between atoms: _192  and  _193
REMARK   78  A    between atoms: _193  and  _194
REMARK   79  A    between atoms: _197  and  _199
REMARK   80  A    between atoms: _199  and  _200
REMARK   81  A    between atoms: _199  and  _202
REMARK   82  A    between atoms: _202  and  _203
REMARK   83  A    between atoms: _203  and  _204
REMARK   84  A    between atoms: _207  and  _209
REMARK   85  A    between atoms: _209  and  _210
REMARK   86  A    between atoms: _209  and  _212
REMARK   87  A    between atoms: _212  and  _213
REMARK   88  A    between atoms: _218  and  _219
REMARK   89  A    between atoms: _221  and  _223
REMARK   90  A    between atoms: _223  and  _224
REMARK   91  A    between atoms: _223  and  _226
REMARK   92  A    between atoms: _226  and  _227
REMARK   93  A    between atoms: _237  and  _239
REMARK   94  A    between atoms: _239  and  _240
REMARK   95  A    between atoms: _239  and  _242
REMARK   96  A    between atoms: _242  and  _243
REMARK   97  A    between atoms: _246  and  _248
REMARK   98  A    between atoms: _248  and  _249
REMARK   99  A    between atoms: _248  and  _251
REMARK  100  A    between atoms: _251  and  _252
REMARK  101  A    between atoms: _252  and  _253
REMARK  102  A    between atoms: _253  and  _254
REMARK  103  A    between atoms: _263  and  _265
REMARK  104  A    between atoms: _265  and  _266
REMARK  105  A    between atoms: _265  and  _268
REMARK  106  A    between atoms: _268  and  _269
REMARK  107  A    between atoms: _274  and  _276
REMARK  108  A    between atoms: _276  and  _277
REMARK  109  A    between atoms: _276  and  _279
REMARK  110  A    between atoms: _279  and  _280
REMARK  111  A    between atoms: _283  and  _285
REMARK  112  A    between atoms: _285  and  _286
REMARK  113  A    between atoms: _285  and  _288
REMARK  114  A    between atoms: _288  and  _289
REMARK  115  A    between atoms: _289  and  _290
REMARK  116  A    between atoms: _295  and  _297
REMARK  117  A    between atoms: _297  and  _298
REMARK  118  A    between atoms: _297  and  _300
REMARK  119  A    between atoms: _300  and  _301
REMARK  120  A    between atoms: _304  and  _306
REMARK  121  A    between atoms: _306  and  _307
REMARK  122  A    between atoms: _306  and  _309
REMARK  123  A    between atoms: _311  and  _313
REMARK  124  A    between atoms: _313  and  _314
REMARK  125  A    between atoms: _313  and  _316
REMARK  126  A    between atoms: _316  and  _317
REMARK  127  A    between atoms: _320  and  _322
REMARK  128  A    between atoms: _322  and  _323
REMARK  129  A    between atoms: _322  and  _325
REMARK  130  A    between atoms: _325  and  _326
REMARK  131  A    between atoms: _331  and  _333
REMARK  132  A    between atoms: _333  and  _334
REMARK  133  A    between atoms: _333  and  _336
REMARK  134  A    between atoms: _336  and  _337
REMARK  135  A    between atoms: _337  and  _338
REMARK  136  A    between atoms: _343  and  _345
REMARK  137  A    between atoms: _345  and  _346
REMARK  138  A    between atoms: _345  and  _348
REMARK  139  A    between atoms: _348  and  _349
REMARK  140  A    between atoms: _352  and  _354
REMARK  141  A    between atoms: _354  and  _355
REMARK  142  A    between atoms: _354  and  _357
REMARK  143  A    between atoms: _357  and  _358
REMARK  144  A    between atoms: _361  and  _363
REMARK  145  A    between atoms: _363  and  _364
REMARK  146  A    between atoms: _363  and  _366
REMARK  147  A    between atoms: _366  and  _367
REMARK  148  A    between atoms: _367  and  _368
REMARK  149  A    between atoms: _368  and  _369
REMARK  150  A    between atoms: _378  and  _380
REMARK  151  A    between atoms: _380  and  _381
REMARK  152  A    between atoms: _380  and  _383
REMARK  153  A    between atoms: _383  and  _384
REMARK  154  A    between atoms: _384  and  _385
REMARK  155  A    between atoms: _388  and  _390
REMARK  156  A    between atoms: _390  and  _391
REMARK  157  A    between atoms: _390  and  _393
REMARK  158  A    between atoms: _393  and  _394
REMARK  159  A    between atoms: _396  and  _398
REMARK  160  A    between atoms: _398  and  _399
REMARK  161  A    between atoms: _398  and  _401
REMARK  162  A    between atoms: _401  and  _402
REMARK  163  A    between atoms: _405  and  _407
REMARK  164  A    between atoms: _407  and  _408
REMARK  165  A    between atoms: _407  and  _410
REMARK  166  A    between atoms: _410  and  _411
REMARK  167  A    between atoms: _411  and  _412
REMARK  168  A    between atoms: _412  and  _413
REMARK  169  A    between atoms: _422  and  _424
REMARK  170  A    between atoms: _424  and  _425
REMARK  171  A    between atoms: _424  and  _427
REMARK  172  A    between atoms: _427  and  _428
REMARK  173  A    between atoms: _433  and  _435
REMARK  174  A    between atoms: _435  and  _436
REMARK  175  A    between atoms: _435  and  _438
REMARK  176  A    between atoms: _438  and  _439
REMARK  177  A    between atoms: _442  and  _444
REMARK  178  A    between atoms: _444  and  _445
REMARK  179  A    between atoms: _444  and  _447
REMARK  180  A    between atoms: _447  and  _448
REMARK  181  A    between atoms: _453  and  _454
REMARK  182  A    between atoms: _456  and  _458
REMARK  183  A    between atoms: _458  and  _459
REMARK  184  A    between atoms: _458  and  _461
REMARK  185  A    between atoms: _461  and  _462
REMARK  186  A    between atoms: _465  and  _467
REMARK  187  A    between atoms: _467  and  _468
REMARK  188  A    between atoms: _467  and  _470
REMARK  189  A    between atoms: _470  and  _471
REMARK  190  A    between atoms: _471  and  _472
REMARK  191  A    between atoms: _477  and  _479
REMARK  192  A    between atoms: _479  and  _480
REMARK  193  A    between atoms: _479  and  _482
REMARK  194  A    between atoms: _482  and  _483
REMARK  195  A    between atoms: _483  and  _484
REMARK  196  A    between atoms: _484  and  _485
REMARK  197  A    between atoms: _494  and  _496
REMARK  198  A    between atoms: _496  and  _497
REMARK  199  A    between atoms: _496  and  _499
REMARK  200  A    between atoms: _499  and  _500
REMARK  201  A    between atoms: _505  and  _506
REMARK  202  A    between atoms: _508  and  _510
REMARK  203  A    between atoms: _510  and  _511
REMARK  204  A    between atoms: _513  and  _515
REMARK  205  A    between atoms: _515  and  _516
REMARK  206  A    between atoms: _515  and  _518
REMARK  207  A    between atoms: _518  and  _519
REMARK  208  A    between atoms: _524  and  _526
REMARK  209  A    between atoms: _526  and  _527
REMARK  210  A    between atoms: _526  and  _529
REMARK  211  A    between atoms: _529  and  _530
REMARK  212  A    between atoms: _530  and  _531
REMARK  213  A    between atoms: _536  and  _538
REMARK  214  A    between atoms: _538  and  _539
REMARK  215  A    between atoms: _538  and  _541
REMARK  216  A    between atoms: _541  and  _542
REMARK  217  A    between atoms: _548  and  _550
REMARK  218  A    between atoms: _550  and  _551
REMARK  219  A    between atoms: _554  and  _556
REMARK  220  A    between atoms: _556  and  _557
REMARK  221  A    between atoms: _556  and  _559
REMARK  222  A    between atoms: _559  and  _560
REMARK  223  A    between atoms: _565  and  _566
REMARK  224  A    between atoms: _568  and  _570
REMARK  225  A    between atoms: _570  and  _571
REMARK  226  A    between atoms: _570  and  _573
REMARK  227  A    between atoms: _573  and  _574
REMARK  228  A    between atoms: _579  and  _580
REMARK  229  A    between atoms: _582  and  _584
REMARK  230  A    between atoms: _584  and  _585
REMARK  231  A    between atoms: _584  and  _587
REMARK  232  A    between atoms: _587  and  _588
REMARK  233  A    between atoms: _591  and  _593
REMARK  234  A    between atoms: _593  and  _594
REMARK  235  A    between atoms: _593  and  _596
REMARK  236  A    between atoms: _596  and  _597
REMARK  237  A    between atoms: _607  and  _609
REMARK  238  A    between atoms: _609  and  _610
REMARK  239  A    between atoms: _613  and  _615
REMARK  240  A    between atoms: _615  and  _616
REMARK  241  A    between atoms: _619  and  _621
REMARK  242  A    between atoms: _621  and  _622
REMARK  243  A    between atoms: _621  and  _624
REMARK  244  A    between atoms: _624  and  _625
REMARK  245  A    between atoms: _625  and  _626
REMARK  246  A    between atoms: _631  and  _633
REMARK  247  A    between atoms: _633  and  _634
REMARK  248  A    between atoms: _633  and  _636
REMARK  249  A    between atoms: _636  and  _637
REMARK  250  A    between atoms: _640  and  _642
REMARK  251  A    between atoms: _642  and  _643
REMARK  252  A    between atoms: _642  and  _645
REMARK  253  A    between atoms: _645  and  _646
REMARK  254  A    between atoms: _649  and  _651
REMARK  255  A    between atoms: _651  and  _652
REMARK  256  A    between atoms: _651  and  _654
REMARK  257  A    between atoms: _654  and  _655
REMARK  258  A    between atoms: _655  and  _656
REMARK  259  A    between atoms: _661  and  _663
REMARK  260  A    between atoms: _663  and  _664
REMARK  261  A    between atoms: _663  and  _666
REMARK  262  A    between atoms: _666  and  _667
REMARK  263  A    between atoms: _667  and  _668
REMARK  264  A    between atoms: _668  and  _669
REMARK  265  A    between atoms: _678  and  _680
REMARK  266  A    between atoms: _680  and  _681
REMARK  267  A    between atoms: _680  and  _683
REMARK  268  A    between atoms: _683  and  _684
REMARK  269  A    between atoms: _684  and  _685
REMARK  270  A    between atoms: _685  and  _686
REMARK  271  A    between atoms: _686  and  _687
REMARK  272  A    between atoms: _691  and  _693
REMARK  273  A    between atoms: _693  and  _694
REMARK  274  A    between atoms: _693  and  _696
REMARK  275  A    between atoms: _696  and  _697
REMARK  276  A    between atoms: _707  and  _709
REMARK  277  A    between atoms: _709  and  _710
REMARK  278  A    between atoms: _713  and  _715
REMARK  279  A    between atoms: _715  and  _716
REMARK  280  A    between atoms: _719  and  _721
REMARK  281  A    between atoms: _721  and  _722
REMARK  282  A    between atoms: _721  and  _724
REMARK  283  A    between atoms: _724  and  _725
REMARK  284  A    between atoms: _725  and  _726
REMARK  285  A    between atoms: _726  and  _727
REMARK  286  A    between atoms: _736  and  _738
REMARK  287  A    between atoms: _738  and  _739
REMARK  288  A    between atoms: _738  and  _741
REMARK  289  A    between atoms: _744  and  _746
REMARK  290  A    between atoms: _746  and  _747
REMARK  291  A    between atoms: _750  and  _752
REMARK  292  A    between atoms: _752  and  _753
REMARK  293  A    between atoms: _752  and  _755
REMARK  294  A    between atoms: _755  and  _756
REMARK  295  A    between atoms: _756  and  _757
REMARK  296  A    between atoms: _760  and  _762
REMARK  297  A    between atoms: _762  and  _763
REMARK  298  A    between atoms: _762  and  _765
REMARK  299  A    between atoms: _765  and  _766
REMARK  300  A    between atoms: _766  and  _767
REMARK  301  A    between atoms: _772  and  _774
REMARK  302  A    between atoms: _774  and  _775
REMARK  303  A    between atoms: _774  and  _777
REMARK  304  A    between atoms: _777  and  _778
REMARK  305  A    between atoms: _781  and  _783
REMARK  306  A    between atoms: _783  and  _784
REMARK  307  A    between atoms: _783  and  _786
REMARK  308  A    between atoms: _786  and  _787
REMARK  309  A    between atoms: _787  and  _788
REMARK  310  A    between atoms: _788  and  _789
REMARK  311  A    between atoms: _798  and  _800
REMARK  312  A    between atoms: _800  and  _801
REMARK  313  A    between atoms: _800  and  _803
REMARK  314  A    between atoms: _803  and  _804
REMARK  315  A    between atoms: _807  and  _809
REMARK  316  A    between atoms: _809  and  _810
REMARK  317  A    between atoms: _809  and  _812
REMARK  318  A    between atoms: _812  and  _813
REMARK  319  A    between atoms: _818  and  _819
REMARK  320  A    between atoms: _821  and  _823
REMARK  321  A    between atoms: _823  and  _824
REMARK  322  A    between atoms: _823  and  _826
REMARK  323  A    between atoms: _826  and  _827
REMARK  324  A    between atoms: _830  and  _832
REMARK  325  A    between atoms: _832  and  _833
REMARK  326  A    between atoms: _832  and  _835
REMARK  327  A    between atoms: _835  and  _836
REMARK  328  A    between atoms: _839  and  _841
REMARK  329  A    between atoms: _841  and  _842
REMARK  330  A    between atoms: _841  and  _844
REMARK  331  A    between atoms: _846  and  _848
REMARK  332  A    between atoms: _848  and  _849
REMARK  333  A    between atoms: _848  and  _851
REMARK  334  A    between atoms: _854  and  _856
REMARK  335  A    between atoms: _856  and  _857
REMARK  336  A    between atoms: _856  and  _859
REMARK  337  A    between atoms: _859  and  _860
REMARK  338  A    between atoms: _860  and  _861
REMARK  339  A    between atoms: _864  and  _866
REMARK  340  A    between atoms: _866  and  _867
REMARK  341  A    between atoms: _866  and  _869
REMARK  342  A    between atoms: _869  and  _870
REMARK  343  A    between atoms: _880  and  _882
REMARK  344  A    between atoms: _882  and  _883
REMARK  345  A    between atoms: _882  and  _885
REMARK  346  A    between atoms: _885  and  _886
REMARK  347  A    between atoms: _889  and  _891
REMARK  348  A    between atoms: _891  and  _892
REMARK  349  A    between atoms: _891  and  _894
REMARK  350  A    between atoms: _894  and  _895
REMARK  351  A    between atoms: _900  and  _901
REMARK                            x       y       z     vdW  Elec       q    Type
REMARK                         _______ _______ _______ _____ _____    ______ ____
ROOT
ATOM      1  O   HOH     1      -0.150   7.946  27.700  0.00  0.00    +0.000 OA
ENDROOT
TORSDOF 0
REMARK  Name = ../refined-set-2016/4o2c/4o2c_pocket.pdb
REMARK  351 active torsions:
REMARK  status: ('A' for Active; 'I' for Inactive)
REMARK    1  A    between atoms: _1  and  _3
REMARK    2  A    between atoms: _3  and  _4
REMARK    3  A    between atoms: _3  and  _6
REMARK    4  A    between atoms: _6  and  _7
REMARK    5  A    between atoms: _7  and  _8
REMARK    6  A    between atoms: _10  and  _12
REMARK    7  A    between atoms: _12  and  _13
REMARK    8  A    between atoms: _12  and  _15
REMARK    9  A    between atoms: _15  and  _16
REMARK   10  A    between atoms: _16  and  _17
REMARK   11  A    between atoms: _17  and  _18
REMARK   12  A    between atoms: _27  and  _29
REMARK   13  A    between atoms: _29  and  _30
REMARK   14  A    between atoms: _29  and  _32
REMARK   15  A    between atoms: _32  and  _33
REMARK   16  A    between atoms: _38  and  _39
REMARK   17  A    between atoms: _41  and  _43
REMARK   18  A    between atoms: _43  and  _44
REMARK   19  A    between atoms: _43  and  _46
REMARK   20  A    between atoms: _46  and  _47
REMARK   21  A    between atoms: _53  and  _55
REMARK   22  A    between atoms: _55  and  _56
REMARK   23  A    between atoms: _55  and  _58
REMARK   24  A    between atoms: _58  and  _59
REMARK   25  A    between atoms: _64  and  _65
REMARK   26  A    between atoms: _67  and  _69
REMARK   27  A    between atoms: _69  and  _70
REMARK   28  A    between atoms: _69  and  _72
REMARK   29  A    between atoms: _72  and  _73
REMARK   30  A    between atoms: _79  and  _81
REMARK   31  A    between atoms: _81  and  _82
REMARK   32  A    between atoms: _81  and  _84
REMARK   33  A    between atoms: _84  and  _85
REMARK   34  A    between atoms: _88  and  _90
REMARK   35  A    between atoms: _90  and  _91
REMARK   36  A    between atoms: _90  and  _93
REMARK   37  A    between atoms: _93  and  _94
REMARK   38  A    between atoms: _96  and  _98
REMARK   39  A    between atoms: _98  and  _99
REMARK   40  A    between atoms: _98  and  _101
REMARK   41  A    between atoms: _104  and  _106
REMARK   42  A    between atoms: _106  and  _107
REMARK   43  A    between atoms: _109  and  _111
REMARK   44  A    between atoms: _111  and  _112
REMARK   45  A    between atoms: _111  and  _114
REMARK   46  A    between atoms: _114  and  _115
REMARK   47  A    between atoms: _121  and  _123
REMARK   48  A    between atoms: _123  and  _124
REMARK   49  A    between atoms: _123  and  _126
REMARK   50  A    between atoms: _129  and  _131
REMARK   51  A    between atoms: _131  and  _132
REMARK   52  A    between atoms: _131  and  _134
REMARK   53  A    between atoms: _134  and  _135
REMARK   54  A    between atoms: _135  and  _136
REMARK   55  A    between atoms: _136  and  _137
REMARK   56  A    between atoms: _146  and  _148
REMARK   57  A    between atoms: _148  and  _149
REMARK   58  A    between atoms: _148  and  _151
REMARK   59  A    between atoms: _151  and  _152
REMARK   60  A    between atoms: _158  and  _160
REMARK   61  A    between atoms: _160  and  _161
REMARK   62  A    between atoms: _160  and  _163
REMARK   63  A    between atoms: _163  and  _164
REMARK   64  A    between atoms: _164  and  _165
REMARK   65  A    between atoms: _168  and  _170
REMARK   66  A    between atoms: _170  and  _171
REMARK   67  A    between atoms: _170  and  _173
REMARK   68  A    between atoms: _173  and  _174
REMARK   69  A    between atoms: _174  and  _175
REMARK   70  A    between atoms: _178  and  _180
REMARK   71  A    between atoms: _180  and  _181
REMARK   72  A    between atoms: _180  and  _183
REMARK   73  A    between atoms: _183  and  _184
REMARK   74  A    between atoms: _187  and  _189
REMARK   75  A    between atoms: _189  and  _190
REMARK   76  A    between atoms: _189  and  _192
REMARK   77  A    between atoms: _192  and  _193
REMARK   78  A    between atoms: _193  and  _194
REMARK   79  A    between atoms: _197  and  _199
REMARK   80  A    between atoms: _199  and  _200
REMARK   81  A    between atoms: _199  and  _202
REMARK   82  A    between atoms: _202  and  _203
REMARK   83  A    between atoms: _203  and  _204
REMARK   84  A    between atoms: _207  and  _209
REMARK   85  A    between atoms: _209  and  _210
REMARK   86  A    between atoms: _209  and  _212
REMARK   87  A    between atoms: _212  and  _213
REMARK   88  A    between atoms: _218  and  _219
REMARK   89  A    between atoms: _221  and  _223
REMARK   90  A    between atoms: _223  and  _224
REMARK   91  A    between atoms: _223  and  _226
REMARK   92  A    between atoms: _226  and  _227
REMARK   93  A    between atoms: _237  and  _239
REMARK   94  A    between atoms: _239  and  _240
REMARK   95  A    between atoms: _239  and  _242
REMARK   96  A    between atoms: _242  and  _243
REMARK   97  A    between atoms: _246  and  _248
REMARK   98  A    between atoms: _248  and  _249
REMARK   99  A    between atoms: _248  and  _251
REMARK  100  A    between atoms: _251  and  _252
REMARK  101  A    between atoms: _252  and  _253
REMARK  102  A    between atoms: _253  and  _254
REMARK  103  A    between atoms: _263  and  _265
REMARK  104  A    between atoms: _265  and  _266
REMARK  105  A    between atoms: _265  and  _268
REMARK  106  A    between atoms: _268  and  _269
REMARK  107  A    between atoms: _274  and  _276
REMARK  108  A    between atoms: _276  and  _277
REMARK  109  A    between atoms: _276  and  _279
REMARK  110  A    between atoms: _279  and  _280
REMARK  111  A    between atoms: _283  and  _285
REMARK  112  A    between atoms: _285  and  _286
REMARK  113  A    between atoms: _285  and  _288
REMARK  114  A    between atoms: _288  and  _289
REMARK  115  A    between atoms: _289  and  _290
REMARK  116  A    between atoms: _295  and  _297
REMARK  117  A    between atoms: _297  and  _298
REMARK  118  A    between atoms: _297  and  _300
REMARK  119  A    between atoms: _300  and  _301
REMARK  120  A    between atoms: _304  and  _306
REMARK  121  A    between atoms: _306  and  _307
REMARK  122  A    between atoms: _306  and  _309
REMARK  123  A    between atoms: _311  and  _313
REMARK  124  A    between atoms: _313  and  _314
REMARK  125  A    between atoms: _313  and  _316
REMARK  126  A    between atoms: _316  and  _317
REMARK  127  A    between atoms: _320  and  _322
REMARK  128  A    between atoms: _322  and  _323
REMARK  129  A    between atoms: _322  and  _325
REMARK  130  A    between atoms: _325  and  _326
REMARK  131  A    between atoms: _331  and  _333
REMARK  132  A    between atoms: _333  and  _334
REMARK  133  A    between atoms: _333  and  _336
REMARK  134  A    between atoms: _336  and  _337
REMARK  135  A    between atoms: _337  and  _338
REMARK  136  A    between atoms: _343  and  _345
REMARK  137  A    between atoms: _345  and  _346
REMARK  138  A    between atoms: _345  and  _348
REMARK  139  A    between atoms: _348  and  _349
REMARK  140  A    between atoms: _352  and  _354
REMARK  141  A    between atoms: _354  and  _355
REMARK  142  A    between atoms: _354  and  _357
REMARK  143  A    between atoms: _357  and  _358
REMARK  144  A    between atoms: _361  and  _363
REMARK  145  A    between atoms: _363  and  _364
REMARK  146  A    between atoms: _363  and  _366
REMARK  147  A    between atoms: _366  and  _367
REMARK  148  A    between atoms: _367  and  _368
REMARK  149  A    between atoms: _368  and  _369
REMARK  150  A    between atoms: _378  and  _380
REMARK  151  A    between atoms: _380  and  _381
REMARK  152  A    between atoms: _380  and  _383
REMARK  153  A    between atoms: _383  and  _384
REMARK  154  A    between atoms: _384  and  _385
REMARK  155  A    between atoms: _388  and  _390
REMARK  156  A    between atoms: _390  and  _391
REMARK  157  A    between atoms: _390  and  _393
REMARK  158  A    between atoms: _393  and  _394
REMARK  159  A    between atoms: _396  and  _398
REMARK  160  A    between atoms: _398  and  _399
REMARK  161  A    between atoms: _398  and  _401
REMARK  162  A    between atoms: _401  and  _402
REMARK  163  A    between atoms: _405  and  _407
REMARK  164  A    between atoms: _407  and  _408
REMARK  165  A    between atoms: _407  and  _410
REMARK  166  A    between atoms: _410  and  _411
REMARK  167  A    between atoms: _411  and  _412
REMARK  168  A    between atoms: _412  and  _413
REMARK  169  A    between atoms: _422  and  _424
REMARK  170  A    between atoms: _424  and  _425
REMARK  171  A    between atoms: _424  and  _427
REMARK  172  A    between atoms: _427  and  _428
REMARK  173  A    between atoms: _433  and  _435
REMARK  174  A    between atoms: _435  and  _436
REMARK  175  A    between atoms: _435  and  _438
REMARK  176  A    between atoms: _438  and  _439
REMARK  177  A    between atoms: _442  and  _444
REMARK  178  A    between atoms: _444  and  _445
REMARK  179  A    between atoms: _444  and  _447
REMARK  180  A    between atoms: _447  and  _448
REMARK  181  A    between atoms: _453  and  _454
REMARK  182  A    between atoms: _456  and  _458
REMARK  183  A    between atoms: _458  and  _459
REMARK  184  A    between atoms: _458  and  _461
REMARK  185  A    between atoms: _461  and  _462
REMARK  186  A    between atoms: _465  and  _467
REMARK  187  A    between atoms: _467  and  _468
REMARK  188  A    between atoms: _467  and  _470
REMARK  189  A    between atoms: _470  and  _471
REMARK  190  A    between atoms: _471  and  _472
REMARK  191  A    between atoms: _477  and  _479
REMARK  192  A    between atoms: _479  and  _480
REMARK  193  A    between atoms: _479  and  _482
REMARK  194  A    between atoms: _482  and  _483
REMARK  195  A    between atoms: _483  and  _484
REMARK  196  A    between atoms: _484  and  _485
REMARK  197  A    between atoms: _494  and  _496
REMARK  198  A    between atoms: _496  and  _497
REMARK  199  A    between atoms: _496  and  _499
REMARK  200  A    between atoms: _499  and  _500
REMARK  201  A    between atoms: _505  and  _506
REMARK  202  A    between atoms: _508  and  _510
REMARK  203  A    between atoms: _510  and  _511
REMARK  204  A    between atoms: _513  and  _515
REMARK  205  A    between atoms: _515  and  _516
REMARK  206  A    between atoms: _515  and  _518
REMARK  207  A    between atoms: _518  and  _519
REMARK  208  A    between atoms: _524  and  _526
REMARK  209  A    between atoms: _526  and  _527
REMARK  210  A    between atoms: _526  and  _529
REMARK  211  A    between atoms: _529  and  _530
REMARK  212  A    between atoms: _530  and  _531
REMARK  213  A    between atoms: _536  and  _538
REMARK  214  A    between atoms: _538  and  _539
REMARK  215  A    between atoms: _538  and  _541
REMARK  216  A    between atoms: _541  and  _542
REMARK  217  A    between atoms: _548  and  _550
REMARK  218  A    between atoms: _550  and  _551
REMARK  219  A    between atoms: _554  and  _556
REMARK  220  A    between atoms: _556  and  _557
REMARK  221  A    between atoms: _556  and  _559
REMARK  222  A    between atoms: _559  and  _560
REMARK  223  A    between atoms: _565  and  _566
REMARK  224  A    between atoms: _568  and  _570
REMARK  225  A    between atoms: _570  and  _571
REMARK  226  A    between atoms: _570  and  _573
REMARK  227  A    between atoms: _573  and  _574
REMARK  228  A    between atoms: _579  and  _580
REMARK  229  A    between atoms: _582  and  _584
REMARK  230  A    between atoms: _584  and  _585
REMARK  231  A    between atoms: _584  and  _587
REMARK  232  A    between atoms: _587  and  _588
REMARK  233  A    between atoms: _591  and  _593
REMARK  234  A    between atoms: _593  and  _594
REMARK  235  A    between atoms: _593  and  _596
REMARK  236  A    between atoms: _596  and  _597
REMARK  237  A    between atoms: _607  and  _609
REMARK  238  A    between atoms: _609  and  _610
REMARK  239  A    between atoms: _613  and  _615
REMARK  240  A    between atoms: _615  and  _616
REMARK  241  A    between atoms: _619  and  _621
REMARK  242  A    between atoms: _621  and  _622
REMARK  243  A    between atoms: _621  and  _624
REMARK  244  A    between atoms: _624  and  _625
REMARK  245  A    between atoms: _625  and  _626
REMARK  246  A    between atoms: _631  and  _633
REMARK  247  A    between atoms: _633  and  _634
REMARK  248  A    between atoms: _633  and  _636
REMARK  249  A    between atoms: _636  and  _637
REMARK  250  A    between atoms: _640  and  _642
REMARK  251  A    between atoms: _642  and  _643
REMARK  252  A    between atoms: _642  and  _645
REMARK  253  A    between atoms: _645  and  _646
REMARK  254  A    between atoms: _649  and  _651
REMARK  255  A    between atoms: _651  and  _652
REMARK  256  A    between atoms: _651  and  _654
REMARK  257  A    between atoms: _654  and  _655
REMARK  258  A    between atoms: _655  and  _656
REMARK  259  A    between atoms: _661  and  _663
REMARK  260  A    between atoms: _663  and  _664
REMARK  261  A    between atoms: _663  and  _666
REMARK  262  A    between atoms: _666  and  _667
REMARK  263  A    between atoms: _667  and  _668
REMARK  264  A    between atoms: _668  and  _669
REMARK  265  A    between atoms: _678  and  _680
REMARK  266  A    between atoms: _680  and  _681
REMARK  267  A    between atoms: _680  and  _683
REMARK  268  A    between atoms: _683  and  _684
REMARK  269  A    between atoms: _684  and  _685
REMARK  270  A    between atoms: _685  and  _686
REMARK  271  A    between atoms: _686  and  _687
REMARK  272  A    between atoms: _691  and  _693
REMARK  273  A    between atoms: _693  and  _694
REMARK  274  A    between atoms: _693  and  _696
REMARK  275  A    between atoms: _696  and  _697
REMARK  276  A    between atoms: _707  and  _709
REMARK  277  A    between atoms: _709  and  _710
REMARK  278  A    between atoms: _713  and  _715
REMARK  279  A    between atoms: _715  and  _716
REMARK  280  A    between atoms: _719  and  _721
REMARK  281  A    between atoms: _721  and  _722
REMARK  282  A    between atoms: _721  and  _724
REMARK  283  A    between atoms: _724  and  _725
REMARK  284  A    between atoms: _725  and  _726
REMARK  285  A    between atoms: _726  and  _727
REMARK  286  A    between atoms: _736  and  _738
REMARK  287  A    between atoms: _738  and  _739
REMARK  288  A    between atoms: _738  and  _741
REMARK  289  A    between atoms: _744  and  _746
REMARK  290  A    between atoms: _746  and  _747
REMARK  291  A    between atoms: _750  and  _752
REMARK  292  A    between atoms: _752  and  _753
REMARK  293  A    between atoms: _752  and  _755
REMARK  294  A    between atoms: _755  and  _756
REMARK  295  A    between atoms: _756  and  _757
REMARK  296  A    between atoms: _760  and  _762
REMARK  297  A    between atoms: _762  and  _763
REMARK  298  A    between atoms: _762  and  _765
REMARK  299  A    between atoms: _765  and  _766
REMARK  300  A    between atoms: _766  and  _767
REMARK  301  A    between atoms: _772  and  _774
REMARK  302  A    between atoms: _774  and  _775
REMARK  303  A    between atoms: _774  and  _777
REMARK  304  A    between atoms: _777  and  _778
REMARK  305  A    between atoms: _781  and  _783
REMARK  306  A    between atoms: _783  and  _784
REMARK  307  A    between atoms: _783  and  _786
REMARK  308  A    between atoms: _786  and  _787
REMARK  309  A    between atoms: _787  and  _788
REMARK  310  A    between atoms: _788  and  _789
REMARK  311  A    between atoms: _798  and  _800
REMARK  312  A    between atoms: _800  and  _801
REMARK  313  A    between atoms: _800  and  _803
REMARK  314  A    between atoms: _803  and  _804
REMARK  315  A    between atoms: _807  and  _809
REMARK  316  A    between atoms: _809  and  _810
REMARK  317  A    between atoms: _809  and  _812
REMARK  318  A    between atoms: _812  and  _813
REMARK  319  A    between atoms: _818  and  _819
REMARK  320  A    between atoms: _821  and  _823
REMARK  321  A    between atoms: _823  and  _824
REMARK  322  A    between atoms: _823  and  _826
REMARK  323  A    between atoms: _826  and  _827
REMARK  324  A    between atoms: _830  and  _832
REMARK  325  A    between atoms: _832  and  _833
REMARK  326  A    between atoms: _832  and  _835
REMARK  327  A    between atoms: _835  and  _836
REMARK  328  A    between atoms: _839  and  _841
REMARK  329  A    between atoms: _841  and  _842
REMARK  330  A    between atoms: _841  and  _844
REMARK  331  A    between atoms: _846  and  _848
REMARK  332  A    between atoms: _848  and  _849
REMARK  333  A    between atoms: _848  and  _851
REMARK  334  A    between atoms: _854  and  _856
REMARK  335  A    between atoms: _856  and  _857
REMARK  336  A    between atoms: _856  and  _859
REMARK  337  A    between atoms: _859  and  _860
REMARK  338  A    between atoms: _860  and  _861
REMARK  339  A    between atoms: _864  and  _866
REMARK  340  A    between atoms: _866  and  _867
REMARK  341  A    between atoms: _866  and  _869
REMARK  342  A    between atoms: _869  and  _870
REMARK  343  A    between atoms: _880  and  _882
REMARK  344  A    between atoms: _882  and  _883
REMARK  345  A    between atoms: _882  and  _885
REMARK  346  A    between atoms: _885  and  _886
REMARK  347  A    between atoms: _889  and  _891
REMARK  348  A    between atoms: _891  and  _892
REMARK  349  A    between atoms: _891  and  _894
REMARK  350  A    between atoms: _894  and  _895
REMARK  351  A    between atoms: _900  and  _901
REMARK                            x       y       z     vdW  Elec       q    Type
REMARK                         _______ _______ _______ _____ _____    ______ ____
ROOT
ATOM      1  O   HOH     1      12.677   9.198  36.098  0.00  0.00    +0.000 OA
ENDROOT
TORSDOF 0
REMARK  Name = ../refined-set-2016/4o2c/4o2c_pocket.pdb
REMARK  351 active torsions:
REMARK  status: ('A' for Active; 'I' for Inactive)
REMARK    1  A    between atoms: _1  and  _3
REMARK    2  A    between atoms: _3  and  _4
REMARK    3  A    between atoms: _3  and  _6
REMARK    4  A    between atoms: _6  and  _7
REMARK    5  A    between atoms: _7  and  _8
REMARK    6  A    between atoms: _10  and  _12
REMARK    7  A    between atoms: _12  and  _13
REMARK    8  A    between atoms: _12  and  _15
REMARK    9  A    between atoms: _15  and  _16
REMARK   10  A    between atoms: _16  and  _17
REMARK   11  A    between atoms: _17  and  _18
REMARK   12  A    between atoms: _27  and  _29
REMARK   13  A    between atoms: _29  and  _30
REMARK   14  A    between atoms: _29  and  _32
REMARK   15  A    between atoms: _32  and  _33
REMARK   16  A    between atoms: _38  and  _39
REMARK   17  A    between atoms: _41  and  _43
REMARK   18  A    between atoms: _43  and  _44
REMARK   19  A    between atoms: _43  and  _46
REMARK   20  A    between atoms: _46  and  _47
REMARK   21  A    between atoms: _53  and  _55
REMARK   22  A    between atoms: _55  and  _56
REMARK   23  A    between atoms: _55  and  _58
REMARK   24  A    between atoms: _58  and  _59
REMARK   25  A    between atoms: _64  and  _65
REMARK   26  A    between atoms: _67  and  _69
REMARK   27  A    between atoms: _69  and  _70
REMARK   28  A    between atoms: _69  and  _72
REMARK   29  A    between atoms: _72  and  _73
REMARK   30  A    between atoms: _79  and  _81
REMARK   31  A    between atoms: _81  and  _82
REMARK   32  A    between atoms: _81  and  _84
REMARK   33  A    between atoms: _84  and  _85
REMARK   34  A    between atoms: _88  and  _90
REMARK   35  A    between atoms: _90  and  _91
REMARK   36  A    between atoms: _90  and  _93
REMARK   37  A    between atoms: _93  and  _94
REMARK   38  A    between atoms: _96  and  _98
REMARK   39  A    between atoms: _98  and  _99
REMARK   40  A    between atoms: _98  and  _101
REMARK   41  A    between atoms: _104  and  _106
REMARK   42  A    between atoms: _106  and  _107
REMARK   43  A    between atoms: _109  and  _111
REMARK   44  A    between atoms: _111  and  _112
REMARK   45  A    between atoms: _111  and  _114
REMARK   46  A    between atoms: _114  and  _115
REMARK   47  A    between atoms: _121  and  _123
REMARK   48  A    between atoms: _123  and  _124
REMARK   49  A    between atoms: _123  and  _126
REMARK   50  A    between atoms: _129  and  _131
REMARK   51  A    between atoms: _131  and  _132
REMARK   52  A    between atoms: _131  and  _134
REMARK   53  A    between atoms: _134  and  _135
REMARK   54  A    between atoms: _135  and  _136
REMARK   55  A    between atoms: _136  and  _137
REMARK   56  A    between atoms: _146  and  _148
REMARK   57  A    between atoms: _148  and  _149
REMARK   58  A    between atoms: _148  and  _151
REMARK   59  A    between atoms: _151  and  _152
REMARK   60  A    between atoms: _158  and  _160
REMARK   61  A    between atoms: _160  and  _161
REMARK   62  A    between atoms: _160  and  _163
REMARK   63  A    between atoms: _163  and  _164
REMARK   64  A    between atoms: _164  and  _165
REMARK   65  A    between atoms: _168  and  _170
REMARK   66  A    between atoms: _170  and  _171
REMARK   67  A    between atoms: _170  and  _173
REMARK   68  A    between atoms: _173  and  _174
REMARK   69  A    between atoms: _174  and  _175
REMARK   70  A    between atoms: _178  and  _180
REMARK   71  A    between atoms: _180  and  _181
REMARK   72  A    between atoms: _180  and  _183
REMARK   73  A    between atoms: _183  and  _184
REMARK   74  A    between atoms: _187  and  _189
REMARK   75  A    between atoms: _189  and  _190
REMARK   76  A    between atoms: _189  and  _192
REMARK   77  A    between atoms: _192  and  _193
REMARK   78  A    between atoms: _193  and  _194
REMARK   79  A    between atoms: _197  and  _199
REMARK   80  A    between atoms: _199  and  _200
REMARK   81  A    between atoms: _199  and  _202
REMARK   82  A    between atoms: _202  and  _203
REMARK   83  A    between atoms: _203  and  _204
REMARK   84  A    between atoms: _207  and  _209
REMARK   85  A    between atoms: _209  and  _210
REMARK   86  A    between atoms: _209  and  _212
REMARK   87  A    between atoms: _212  and  _213
REMARK   88  A    between atoms: _218  and  _219
REMARK   89  A    between atoms: _221  and  _223
REMARK   90  A    between atoms: _223  and  _224
REMARK   91  A    between atoms: _223  and  _226
REMARK   92  A    between atoms: _226  and  _227
REMARK   93  A    between atoms: _237  and  _239
REMARK   94  A    between atoms: _239  and  _240
REMARK   95  A    between atoms: _239  and  _242
REMARK   96  A    between atoms: _242  and  _243
REMARK   97  A    between atoms: _246  and  _248
REMARK   98  A    between atoms: _248  and  _249
REMARK   99  A    between atoms: _248  and  _251
REMARK  100  A    between atoms: _251  and  _252
REMARK  101  A    between atoms: _252  and  _253
REMARK  102  A    between atoms: _253  and  _254
REMARK  103  A    between atoms: _263  and  _265
REMARK  104  A    between atoms: _265  and  _266
REMARK  105  A    between atoms: _265  and  _268
REMARK  106  A    between atoms: _268  and  _269
REMARK  107  A    between atoms: _274  and  _276
REMARK  108  A    between atoms: _276  and  _277
REMARK  109  A    between atoms: _276  and  _279
REMARK  110  A    between atoms: _279  and  _280
REMARK  111  A    between atoms: _283  and  _285
REMARK  112  A    between atoms: _285  and  _286
REMARK  113  A    between atoms: _285  and  _288
REMARK  114  A    between atoms: _288  and  _289
REMARK  115  A    between atoms: _289  and  _290
REMARK  116  A    between atoms: _295  and  _297
REMARK  117  A    between atoms: _297  and  _298
REMARK  118  A    between atoms: _297  and  _300
REMARK  119  A    between atoms: _300  and  _301
REMARK  120  A    between atoms: _304  and  _306
REMARK  121  A    between atoms: _306  and  _307
REMARK  122  A    between atoms: _306  and  _309
REMARK  123  A    between atoms: _311  and  _313
REMARK  124  A    between atoms: _313  and  _314
REMARK  125  A    between atoms: _313  and  _316
REMARK  126  A    between atoms: _316  and  _317
REMARK  127  A    between atoms: _320  and  _322
REMARK  128  A    between atoms: _322  and  _323
REMARK  129  A    between atoms: _322  and  _325
REMARK  130  A    between atoms: _325  and  _326
REMARK  131  A    between atoms: _331  and  _333
REMARK  132  A    between atoms: _333  and  _334
REMARK  133  A    between atoms: _333  and  _336
REMARK  134  A    between atoms: _336  and  _337
REMARK  135  A    between atoms: _337  and  _338
REMARK  136  A    between atoms: _343  and  _345
REMARK  137  A    between atoms: _345  and  _346
REMARK  138  A    between atoms: _345  and  _348
REMARK  139  A    between atoms: _348  and  _349
REMARK  140  A    between atoms: _352  and  _354
REMARK  141  A    between atoms: _354  and  _355
REMARK  142  A    between atoms: _354  and  _357
REMARK  143  A    between atoms: _357  and  _358
REMARK  144  A    between atoms: _361  and  _363
REMARK  145  A    between atoms: _363  and  _364
REMARK  146  A    between atoms: _363  and  _366
REMARK  147  A    between atoms: _366  and  _367
REMARK  148  A    between atoms: _367  and  _368
REMARK  149  A    between atoms: _368  and  _369
REMARK  150  A    between atoms: _378  and  _380
REMARK  151  A    between atoms: _380  and  _381
REMARK  152  A    between atoms: _380  and  _383
REMARK  153  A    between atoms: _383  and  _384
REMARK  154  A    between atoms: _384  and  _385
REMARK  155  A    between atoms: _388  and  _390
REMARK  156  A    between atoms: _390  and  _391
REMARK  157  A    between atoms: _390  and  _393
REMARK  158  A    between atoms: _393  and  _394
REMARK  159  A    between atoms: _396  and  _398
REMARK  160  A    between atoms: _398  and  _399
REMARK  161  A    between atoms: _398  and  _401
REMARK  162  A    between atoms: _401  and  _402
REMARK  163  A    between atoms: _405  and  _407
REMARK  164  A    between atoms: _407  and  _408
REMARK  165  A    between atoms: _407  and  _410
REMARK  166  A    between atoms: _410  and  _411
REMARK  167  A    between atoms: _411  and  _412
REMARK  168  A    between atoms: _412  and  _413
REMARK  169  A    between atoms: _422  and  _424
REMARK  170  A    between atoms: _424  and  _425
REMARK  171  A    between atoms: _424  and  _427
REMARK  172  A    between atoms: _427  and  _428
REMARK  173  A    between atoms: _433  and  _435
REMARK  174  A    between atoms: _435  and  _436
REMARK  175  A    between atoms: _435  and  _438
REMARK  176  A    between atoms: _438  and  _439
REMARK  177  A    between atoms: _442  and  _444
REMARK  178  A    between atoms: _444  and  _445
REMARK  179  A    between atoms: _444  and  _447
REMARK  180  A    between atoms: _447  and  _448
REMARK  181  A    between atoms: _453  and  _454
REMARK  182  A    between atoms: _456  and  _458
REMARK  183  A    between atoms: _458  and  _459
REMARK  184  A    between atoms: _458  and  _461
REMARK  185  A    between atoms: _461  and  _462
REMARK  186  A    between atoms: _465  and  _467
REMARK  187  A    between atoms: _467  and  _468
REMARK  188  A    between atoms: _467  and  _470
REMARK  189  A    between atoms: _470  and  _471
REMARK  190  A    between atoms: _471  and  _472
REMARK  191  A    between atoms: _477  and  _479
REMARK  192  A    between atoms: _479  and  _480
REMARK  193  A    between atoms: _479  and  _482
REMARK  194  A    between atoms: _482  and  _483
REMARK  195  A    between atoms: _483  and  _484
REMARK  196  A    between atoms: _484  and  _485
REMARK  197  A    between atoms: _494  and  _496
REMARK  198  A    between atoms: _496  and  _497
REMARK  199  A    between atoms: _496  and  _499
REMARK  200  A    between atoms: _499  and  _500
REMARK  201  A    between atoms: _505  and  _506
REMARK  202  A    between atoms: _508  and  _510
REMARK  203  A    between atoms: _510  and  _511
REMARK  204  A    between atoms: _513  and  _515
REMARK  205  A    between atoms: _515  and  _516
REMARK  206  A    between atoms: _515  and  _518
REMARK  207  A    between atoms: _518  and  _519
REMARK  208  A    between atoms: _524  and  _526
REMARK  209  A    between atoms: _526  and  _527
REMARK  210  A    between atoms: _526  and  _529
REMARK  211  A    between atoms: _529  and  _530
REMARK  212  A    between atoms: _530  and  _531
REMARK  213  A    between atoms: _536  and  _538
REMARK  214  A    between atoms: _538  and  _539
REMARK  215  A    between atoms: _538  and  _541
REMARK  216  A    between atoms: _541  and  _542
REMARK  217  A    between atoms: _548  and  _550
REMARK  218  A    between atoms: _550  and  _551
REMARK  219  A    between atoms: _554  and  _556
REMARK  220  A    between atoms: _556  and  _557
REMARK  221  A    between atoms: _556  and  _559
REMARK  222  A    between atoms: _559  and  _560
REMARK  223  A    between atoms: _565  and  _566
REMARK  224  A    between atoms: _568  and  _570
REMARK  225  A    between atoms: _570  and  _571
REMARK  226  A    between atoms: _570  and  _573
REMARK  227  A    between atoms: _573  and  _574
REMARK  228  A    between atoms: _579  and  _580
REMARK  229  A    between atoms: _582  and  _584
REMARK  230  A    between atoms: _584  and  _585
REMARK  231  A    between atoms: _584  and  _587
REMARK  232  A    between atoms: _587  and  _588
REMARK  233  A    between atoms: _591  and  _593
REMARK  234  A    between atoms: _593  and  _594
REMARK  235  A    between atoms: _593  and  _596
REMARK  236  A    between atoms: _596  and  _597
REMARK  237  A    between atoms: _607  and  _609
REMARK  238  A    between atoms: _609  and  _610
REMARK  239  A    between atoms: _613  and  _615
REMARK  240  A    between atoms: _615  and  _616
REMARK  241  A    between atoms: _619  and  _621
REMARK  242  A    between atoms: _621  and  _622
REMARK  243  A    between atoms: _621  and  _624
REMARK  244  A    between atoms: _624  and  _625
REMARK  245  A    between atoms: _625  and  _626
REMARK  246  A    between atoms: _631  and  _633
REMARK  247  A    between atoms: _633  and  _634
REMARK  248  A    between atoms: _633  and  _636
REMARK  249  A    between atoms: _636  and  _637
REMARK  250  A    between atoms: _640  and  _642
REMARK  251  A    between atoms: _642  and  _643
REMARK  252  A    between atoms: _642  and  _645
REMARK  253  A    between atoms: _645  and  _646
REMARK  254  A    between atoms: _649  and  _651
REMARK  255  A    between atoms: _651  and  _652
REMARK  256  A    between atoms: _651  and  _654
REMARK  257  A    between atoms: _654  and  _655
REMARK  258  A    between atoms: _655  and  _656
REMARK  259  A    between atoms: _661  and  _663
REMARK  260  A    between atoms: _663  and  _664
REMARK  261  A    between atoms: _663  and  _666
REMARK  262  A    between atoms: _666  and  _667
REMARK  263  A    between atoms: _667  and  _668
REMARK  264  A    between atoms: _668  and  _669
REMARK  265  A    between atoms: _678  and  _680
REMARK  266  A    between atoms: _680  and  _681
REMARK  267  A    between atoms: _680  and  _683
REMARK  268  A    between atoms: _683  and  _684
REMARK  269  A    between atoms: _684  and  _685
REMARK  270  A    between atoms: _685  and  _686
REMARK  271  A    between atoms: _686  and  _687
REMARK  272  A    between atoms: _691  and  _693
REMARK  273  A    between atoms: _693  and  _694
REMARK  274  A    between atoms: _693  and  _696
REMARK  275  A    between atoms: _696  and  _697
REMARK  276  A    between atoms: _707  and  _709
REMARK  277  A    between atoms: _709  and  _710
REMARK  278  A    between atoms: _713  and  _715
REMARK  279  A    between atoms: _715  and  _716
REMARK  280  A    between atoms: _719  and  _721
REMARK  281  A    between atoms: _721  and  _722
REMARK  282  A    between atoms: _721  and  _724
REMARK  283  A    between atoms: _724  and  _725
REMARK  284  A    between atoms: _725  and  _726
REMARK  285  A    between atoms: _726  and  _727
REMARK  286  A    between atoms: _736  and  _738
REMARK  287  A    between atoms: _738  and  _739
REMARK  288  A    between atoms: _738  and  _741
REMARK  289  A    between atoms: _744  and  _746
REMARK  290  A    between atoms: _746  and  _747
REMARK  291  A    between atoms: _750  and  _752
REMARK  292  A    between atoms: _752  and  _753
REMARK  293  A    between atoms: _752  and  _755
REMARK  294  A    between atoms: _755  and  _756
REMARK  295  A    between atoms: _756  and  _757
REMARK  296  A    between atoms: _760  and  _762
REMARK  297  A    between atoms: _762  and  _763
REMARK  298  A    between atoms: _762  and  _765
REMARK  299  A    between atoms: _765  and  _766
REMARK  300  A    between atoms: _766  and  _767
REMARK  301  A    between atoms: _772  and  _774
REMARK  302  A    between atoms: _774  and  _775
REMARK  303  A    between atoms: _774  and  _777
REMARK  304  A    between atoms: _777  and  _778
REMARK  305  A    between atoms: _781  and  _783
REMARK  306  A    between atoms: _783  and  _784
REMARK  307  A    between atoms: _783  and  _786
REMARK  308  A    between atoms: _786  and  _787
REMARK  309  A    between atoms: _787  and  _788
REMARK  310  A    between atoms: _788  and  _789
REMARK  311  A    between atoms: _798  and  _800
REMARK  312  A    between atoms: _800  and  _801
REMARK  313  A    between atoms: _800  and  _803
REMARK  314  A    between atoms: _803  and  _804
REMARK  315  A    between atoms: _807  and  _809
REMARK  316  A    between atoms: _809  and  _810
REMARK  317  A    between atoms: _809  and  _812
REMARK  318  A    between atoms: _812  and  _813
REMARK  319  A    between atoms: _818  and  _819
REMARK  320  A    between atoms: _821  and  _823
REMARK  321  A    between atoms: _823  and  _824
REMARK  322  A    between atoms: _823  and  _826
REMARK  323  A    between atoms: _826  and  _827
REMARK  324  A    between atoms: _830  and  _832
REMARK  325  A    between atoms: _832  and  _833
REMARK  326  A    between atoms: _832  and  _835
REMARK  327  A    between atoms: _835  and  _836
REMARK  328  A    between atoms: _839  and  _841
REMARK  329  A    between atoms: _841  and  _842
REMARK  330  A    between atoms: _841  and  _844
REMARK  331  A    between atoms: _846  and  _848
REMARK  332  A    between atoms: _848  and  _849
REMARK  333  A    between atoms: _848  and  _851
REMARK  334  A    between atoms: _854  and  _856
REMARK  335  A    between atoms: _856  and  _857
REMARK  336  A    between atoms: _856  and  _859
REMARK  337  A    between atoms: _859  and  _860
REMARK  338  A    between atoms: _860  and  _861
REMARK  339  A    between atoms: _864  and  _866
REMARK  340  A    between atoms: _866  and  _867
REMARK  341  A    between atoms: _866  and  _869
REMARK  342  A    between atoms: _869  and  _870
REMARK  343  A    between atoms: _880  and  _882
REMARK  344  A    between atoms: _882  and  _883
REMARK  345  A    between atoms: _882  and  _885
REMARK  346  A    between atoms: _885  and  _886
REMARK  347  A    between atoms: _889  and  _891
REMARK  348  A    between atoms: _891  and  _892
REMARK  349  A    between atoms: _891  and  _894
REMARK  350  A    between atoms: _894  and  _895
REMARK  351  A    between atoms: _900  and  _901
REMARK                            x       y       z     vdW  Elec       q    Type
REMARK                         _______ _______ _______ _____ _____    ______ ____
ROOT
ATOM      1  O   HOH     1     -16.662   8.567  28.676  0.00  0.00    +0.000 OA
ENDROOT
TORSDOF 0
REMARK  Name = ../refined-set-2016/4o2c/4o2c_pocket.pdb
REMARK  351 active torsions:
REMARK  status: ('A' for Active; 'I' for Inactive)
REMARK    1  A    between atoms: _1  and  _3
REMARK    2  A    between atoms: _3  and  _4
REMARK    3  A    between atoms: _3  and  _6
REMARK    4  A    between atoms: _6  and  _7
REMARK    5  A    between atoms: _7  and  _8
REMARK    6  A    between atoms: _10  and  _12
REMARK    7  A    between atoms: _12  and  _13
REMARK    8  A    between atoms: _12  and  _15
REMARK    9  A    between atoms: _15  and  _16
REMARK   10  A    between atoms: _16  and  _17
REMARK   11  A    between atoms: _17  and  _18
REMARK   12  A    between atoms: _27  and  _29
REMARK   13  A    between atoms: _29  and  _30
REMARK   14  A    between atoms: _29  and  _32
REMARK   15  A    between atoms: _32  and  _33
REMARK   16  A    between atoms: _38  and  _39
REMARK   17  A    between atoms: _41  and  _43
REMARK   18  A    between atoms: _43  and  _44
REMARK   19  A    between atoms: _43  and  _46
REMARK   20  A    between atoms: _46  and  _47
REMARK   21  A    between atoms: _53  and  _55
REMARK   22  A    between atoms: _55  and  _56
REMARK   23  A    between atoms: _55  and  _58
REMARK   24  A    between atoms: _58  and  _59
REMARK   25  A    between atoms: _64  and  _65
REMARK   26  A    between atoms: _67  and  _69
REMARK   27  A    between atoms: _69  and  _70
REMARK   28  A    between atoms: _69  and  _72
REMARK   29  A    between atoms: _72  and  _73
REMARK   30  A    between atoms: _79  and  _81
REMARK   31  A    between atoms: _81  and  _82
REMARK   32  A    between atoms: _81  and  _84
REMARK   33  A    between atoms: _84  and  _85
REMARK   34  A    between atoms: _88  and  _90
REMARK   35  A    between atoms: _90  and  _91
REMARK   36  A    between atoms: _90  and  _93
REMARK   37  A    between atoms: _93  and  _94
REMARK   38  A    between atoms: _96  and  _98
REMARK   39  A    between atoms: _98  and  _99
REMARK   40  A    between atoms: _98  and  _101
REMARK   41  A    between atoms: _104  and  _106
REMARK   42  A    between atoms: _106  and  _107
REMARK   43  A    between atoms: _109  and  _111
REMARK   44  A    between atoms: _111  and  _112
REMARK   45  A    between atoms: _111  and  _114
REMARK   46  A    between atoms: _114  and  _115
REMARK   47  A    between atoms: _121  and  _123
REMARK   48  A    between atoms: _123  and  _124
REMARK   49  A    between atoms: _123  and  _126
REMARK   50  A    between atoms: _129  and  _131
REMARK   51  A    between atoms: _131  and  _132
REMARK   52  A    between atoms: _131  and  _134
REMARK   53  A    between atoms: _134  and  _135
REMARK   54  A    between atoms: _135  and  _136
REMARK   55  A    between atoms: _136  and  _137
REMARK   56  A    between atoms: _146  and  _148
REMARK   57  A    between atoms: _148  and  _149
REMARK   58  A    between atoms: _148  and  _151
REMARK   59  A    between atoms: _151  and  _152
REMARK   60  A    between atoms: _158  and  _160
REMARK   61  A    between atoms: _160  and  _161
REMARK   62  A    between atoms: _160  and  _163
REMARK   63  A    between atoms: _163  and  _164
REMARK   64  A    between atoms: _164  and  _165
REMARK   65  A    between atoms: _168  and  _170
REMARK   66  A    between atoms: _170  and  _171
REMARK   67  A    between atoms: _170  and  _173
REMARK   68  A    between atoms: _173  and  _174
REMARK   69  A    between atoms: _174  and  _175
REMARK   70  A    between atoms: _178  and  _180
REMARK   71  A    between atoms: _180  and  _181
REMARK   72  A    between atoms: _180  and  _183
REMARK   73  A    between atoms: _183  and  _184
REMARK   74  A    between atoms: _187  and  _189
REMARK   75  A    between atoms: _189  and  _190
REMARK   76  A    between atoms: _189  and  _192
REMARK   77  A    between atoms: _192  and  _193
REMARK   78  A    between atoms: _193  and  _194
REMARK   79  A    between atoms: _197  and  _199
REMARK   80  A    between atoms: _199  and  _200
REMARK   81  A    between atoms: _199  and  _202
REMARK   82  A    between atoms: _202  and  _203
REMARK   83  A    between atoms: _203  and  _204
REMARK   84  A    between atoms: _207  and  _209
REMARK   85  A    between atoms: _209  and  _210
REMARK   86  A    between atoms: _209  and  _212
REMARK   87  A    between atoms: _212  and  _213
REMARK   88  A    between atoms: _218  and  _219
REMARK   89  A    between atoms: _221  and  _223
REMARK   90  A    between atoms: _223  and  _224
REMARK   91  A    between atoms: _223  and  _226
REMARK   92  A    between atoms: _226  and  _227
REMARK   93  A    between atoms: _237  and  _239
REMARK   94  A    between atoms: _239  and  _240
REMARK   95  A    between atoms: _239  and  _242
REMARK   96  A    between atoms: _242  and  _243
REMARK   97  A    between atoms: _246  and  _248
REMARK   98  A    between atoms: _248  and  _249
REMARK   99  A    between atoms: _248  and  _251
REMARK  100  A    between atoms: _251  and  _252
REMARK  101  A    between atoms: _252  and  _253
REMARK  102  A    between atoms: _253  and  _254
REMARK  103  A    between atoms: _263  and  _265
REMARK  104  A    between atoms: _265  and  _266
REMARK  105  A    between atoms: _265  and  _268
REMARK  106  A    between atoms: _268  and  _269
REMARK  107  A    between atoms: _274  and  _276
REMARK  108  A    between atoms: _276  and  _277
REMARK  109  A    between atoms: _276  and  _279
REMARK  110  A    between atoms: _279  and  _280
REMARK  111  A    between atoms: _283  and  _285
REMARK  112  A    between atoms: _285  and  _286
REMARK  113  A    between atoms: _285  and  _288
REMARK  114  A    between atoms: _288  and  _289
REMARK  115  A    between atoms: _289  and  _290
REMARK  116  A    between atoms: _295  and  _297
REMARK  117  A    between atoms: _297  and  _298
REMARK  118  A    between atoms: _297  and  _300
REMARK  119  A    between atoms: _300  and  _301
REMARK  120  A    between atoms: _304  and  _306
REMARK  121  A    between atoms: _306  and  _307
REMARK  122  A    between atoms: _306  and  _309
REMARK  123  A    between atoms: _311  and  _313
REMARK  124  A    between atoms: _313  and  _314
REMARK  125  A    between atoms: _313  and  _316
REMARK  126  A    between atoms: _316  and  _317
REMARK  127  A    between atoms: _320  and  _322
REMARK  128  A    between atoms: _322  and  _323
REMARK  129  A    between atoms: _322  and  _325
REMARK  130  A    between atoms: _325  and  _326
REMARK  131  A    between atoms: _331  and  _333
REMARK  132  A    between atoms: _333  and  _334
REMARK  133  A    between atoms: _333  and  _336
REMARK  134  A    between atoms: _336  and  _337
REMARK  135  A    between atoms: _337  and  _338
REMARK  136  A    between atoms: _343  and  _345
REMARK  137  A    between atoms: _345  and  _346
REMARK  138  A    between atoms: _345  and  _348
REMARK  139  A    between atoms: _348  and  _349
REMARK  140  A    between atoms: _352  and  _354
REMARK  141  A    between atoms: _354  and  _355
REMARK  142  A    between atoms: _354  and  _357
REMARK  143  A    between atoms: _357  and  _358
REMARK  144  A    between atoms: _361  and  _363
REMARK  145  A    between atoms: _363  and  _364
REMARK  146  A    between atoms: _363  and  _366
REMARK  147  A    between atoms: _366  and  _367
REMARK  148  A    between atoms: _367  and  _368
REMARK  149  A    between atoms: _368  and  _369
REMARK  150  A    between atoms: _378  and  _380
REMARK  151  A    between atoms: _380  and  _381
REMARK  152  A    between atoms: _380  and  _383
REMARK  153  A    between atoms: _383  and  _384
REMARK  154  A    between atoms: _384  and  _385
REMARK  155  A    between atoms: _388  and  _390
REMARK  156  A    between atoms: _390  and  _391
REMARK  157  A    between atoms: _390  and  _393
REMARK  158  A    between atoms: _393  and  _394
REMARK  159  A    between atoms: _396  and  _398
REMARK  160  A    between atoms: _398  and  _399
REMARK  161  A    between atoms: _398  and  _401
REMARK  162  A    between atoms: _401  and  _402
REMARK  163  A    between atoms: _405  and  _407
REMARK  164  A    between atoms: _407  and  _408
REMARK  165  A    between atoms: _407  and  _410
REMARK  166  A    between atoms: _410  and  _411
REMARK  167  A    between atoms: _411  and  _412
REMARK  168  A    between atoms: _412  and  _413
REMARK  169  A    between atoms: _422  and  _424
REMARK  170  A    between atoms: _424  and  _425
REMARK  171  A    between atoms: _424  and  _427
REMARK  172  A    between atoms: _427  and  _428
REMARK  173  A    between atoms: _433  and  _435
REMARK  174  A    between atoms: _435  and  _436
REMARK  175  A    between atoms: _435  and  _438
REMARK  176  A    between atoms: _438  and  _439
REMARK  177  A    between atoms: _442  and  _444
REMARK  178  A    between atoms: _444  and  _445
REMARK  179  A    between atoms: _444  and  _447
REMARK  180  A    between atoms: _447  and  _448
REMARK  181  A    between atoms: _453  and  _454
REMARK  182  A    between atoms: _456  and  _458
REMARK  183  A    between atoms: _458  and  _459
REMARK  184  A    between atoms: _458  and  _461
REMARK  185  A    between atoms: _461  and  _462
REMARK  186  A    between atoms: _465  and  _467
REMARK  187  A    between atoms: _467  and  _468
REMARK  188  A    between atoms: _467  and  _470
REMARK  189  A    between atoms: _470  and  _471
REMARK  190  A    between atoms: _471  and  _472
REMARK  191  A    between atoms: _477  and  _479
REMARK  192  A    between atoms: _479  and  _480
REMARK  193  A    between atoms: _479  and  _482
REMARK  194  A    between atoms: _482  and  _483
REMARK  195  A    between atoms: _483  and  _484
REMARK  196  A    between atoms: _484  and  _485
REMARK  197  A    between atoms: _494  and  _496
REMARK  198  A    between atoms: _496  and  _497
REMARK  199  A    between atoms: _496  and  _499
REMARK  200  A    between atoms: _499  and  _500
REMARK  201  A    between atoms: _505  and  _506
REMARK  202  A    between atoms: _508  and  _510
REMARK  203  A    between atoms: _510  and  _511
REMARK  204  A    between atoms: _513  and  _515
REMARK  205  A    between atoms: _515  and  _516
REMARK  206  A    between atoms: _515  and  _518
REMARK  207  A    between atoms: _518  and  _519
REMARK  208  A    between atoms: _524  and  _526
REMARK  209  A    between atoms: _526  and  _527
REMARK  210  A    between atoms: _526  and  _529
REMARK  211  A    between atoms: _529  and  _530
REMARK  212  A    between atoms: _530  and  _531
REMARK  213  A    between atoms: _536  and  _538
REMARK  214  A    between atoms: _538  and  _539
REMARK  215  A    between atoms: _538  and  _541
REMARK  216  A    between atoms: _541  and  _542
REMARK  217  A    between atoms: _548  and  _550
REMARK  218  A    between atoms: _550  and  _551
REMARK  219  A    between atoms: _554  and  _556
REMARK  220  A    between atoms: _556  and  _557
REMARK  221  A    between atoms: _556  and  _559
REMARK  222  A    between atoms: _559  and  _560
REMARK  223  A    between atoms: _565  and  _566
REMARK  224  A    between atoms: _568  and  _570
REMARK  225  A    between atoms: _570  and  _571
REMARK  226  A    between atoms: _570  and  _573
REMARK  227  A    between atoms: _573  and  _574
REMARK  228  A    between atoms: _579  and  _580
REMARK  229  A    between atoms: _582  and  _584
REMARK  230  A    between atoms: _584  and  _585
REMARK  231  A    between atoms: _584  and  _587
REMARK  232  A    between atoms: _587  and  _588
REMARK  233  A    between atoms: _591  and  _593
REMARK  234  A    between atoms: _593  and  _594
REMARK  235  A    between atoms: _593  and  _596
REMARK  236  A    between atoms: _596  and  _597
REMARK  237  A    between atoms: _607  and  _609
REMARK  238  A    between atoms: _609  and  _610
REMARK  239  A    between atoms: _613  and  _615
REMARK  240  A    between atoms: _615  and  _616
REMARK  241  A    between atoms: _619  and  _621
REMARK  242  A    between atoms: _621  and  _622
REMARK  243  A    between atoms: _621  and  _624
REMARK  244  A    between atoms: _624  and  _625
REMARK  245  A    between atoms: _625  and  _626
REMARK  246  A    between atoms: _631  and  _633
REMARK  247  A    between atoms: _633  and  _634
REMARK  248  A    between atoms: _633  and  _636
REMARK  249  A    between atoms: _636  and  _637
REMARK  250  A    between atoms: _640  and  _642
REMARK  251  A    between atoms: _642  and  _643
REMARK  252  A    between atoms: _642  and  _645
REMARK  253  A    between atoms: _645  and  _646
REMARK  254  A    between atoms: _649  and  _651
REMARK  255  A    between atoms: _651  and  _652
REMARK  256  A    between atoms: _651  and  _654
REMARK  257  A    between atoms: _654  and  _655
REMARK  258  A    between atoms: _655  and  _656
REMARK  259  A    between atoms: _661  and  _663
REMARK  260  A    between atoms: _663  and  _664
REMARK  261  A    between atoms: _663  and  _666
REMARK  262  A    between atoms: _666  and  _667
REMARK  263  A    between atoms: _667  and  _668
REMARK  264  A    between atoms: _668  and  _669
REMARK  265  A    between atoms: _678  and  _680
REMARK  266  A    between atoms: _680  and  _681
REMARK  267  A    between atoms: _680  and  _683
REMARK  268  A    between atoms: _683  and  _684
REMARK  269  A    between atoms: _684  and  _685
REMARK  270  A    between atoms: _685  and  _686
REMARK  271  A    between atoms: _686  and  _687
REMARK  272  A    between atoms: _691  and  _693
REMARK  273  A    between atoms: _693  and  _694
REMARK  274  A    between atoms: _693  and  _696
REMARK  275  A    between atoms: _696  and  _697
REMARK  276  A    between atoms: _707  and  _709
REMARK  277  A    between atoms: _709  and  _710
REMARK  278  A    between atoms: _713  and  _715
REMARK  279  A    between atoms: _715  and  _716
REMARK  280  A    between atoms: _719  and  _721
REMARK  281  A    between atoms: _721  and  _722
REMARK  282  A    between atoms: _721  and  _724
REMARK  283  A    between atoms: _724  and  _725
REMARK  284  A    between atoms: _725  and  _726
REMARK  285  A    between atoms: _726  and  _727
REMARK  286  A    between atoms: _736  and  _738
REMARK  287  A    between atoms: _738  and  _739
REMARK  288  A    between atoms: _738  and  _741
REMARK  289  A    between atoms: _744  and  _746
REMARK  290  A    between atoms: _746  and  _747
REMARK  291  A    between atoms: _750  and  _752
REMARK  292  A    between atoms: _752  and  _753
REMARK  293  A    between atoms: _752  and  _755
REMARK  294  A    between atoms: _755  and  _756
REMARK  295  A    between atoms: _756  and  _757
REMARK  296  A    between atoms: _760  and  _762
REMARK  297  A    between atoms: _762  and  _763
REMARK  298  A    between atoms: _762  and  _765
REMARK  299  A    between atoms: _765  and  _766
REMARK  300  A    between atoms: _766  and  _767
REMARK  301  A    between atoms: _772  and  _774
REMARK  302  A    between atoms: _774  and  _775
REMARK  303  A    between atoms: _774  and  _777
REMARK  304  A    between atoms: _777  and  _778
REMARK  305  A    between atoms: _781  and  _783
REMARK  306  A    between atoms: _783  and  _784
REMARK  307  A    between atoms: _783  and  _786
REMARK  308  A    between atoms: _786  and  _787
REMARK  309  A    between atoms: _787  and  _788
REMARK  310  A    between atoms: _788  and  _789
REMARK  311  A    between atoms: _798  and  _800
REMARK  312  A    between atoms: _800  and  _801
REMARK  313  A    between atoms: _800  and  _803
REMARK  314  A    between atoms: _803  and  _804
REMARK  315  A    between atoms: _807  and  _809
REMARK  316  A    between atoms: _809  and  _810
REMARK  317  A    between atoms: _809  and  _812
REMARK  318  A    between atoms: _812  and  _813
REMARK  319  A    between atoms: _818  and  _819
REMARK  320  A    between atoms: _821  and  _823
REMARK  321  A    between atoms: _823  and  _824
REMARK  322  A    between atoms: _823  and  _826
REMARK  323  A    between atoms: _826  and  _827
REMARK  324  A    between atoms: _830  and  _832
REMARK  325  A    between atoms: _832  and  _833
REMARK  326  A    between atoms: _832  and  _835
REMARK  327  A    between atoms: _835  and  _836
REMARK  328  A    between atoms: _839  and  _841
REMARK  329  A    between atoms: _841  and  _842
REMARK  330  A    between atoms: _841  and  _844
REMARK  331  A    between atoms: _846  and  _848
REMARK  332  A    between atoms: _848  and  _849
REMARK  333  A    between atoms: _848  and  _851
REMARK  334  A    between atoms: _854  and  _856
REMARK  335  A    between atoms: _856  and  _857
REMARK  336  A    between atoms: _856  and  _859
REMARK  337  A    between atoms: _859  and  _860
REMARK  338  A    between atoms: _860  and  _861
REMARK  339  A    between atoms: _864  and  _866
REMARK  340  A    between atoms: _866  and  _867
REMARK  341  A    between atoms: _866  and  _869
REMARK  342  A    between atoms: _869  and  _870
REMARK  343  A    between atoms: _880  and  _882
REMARK  344  A    between atoms: _882  and  _883
REMARK  345  A    between atoms: _882  and  _885
REMARK  346  A    between atoms: _885  and  _886
REMARK  347  A    between atoms: _889  and  _891
REMARK  348  A    between atoms: _891  and  _892
REMARK  349  A    between atoms: _891  and  _894
REMARK  350  A    between atoms: _894  and  _895
REMARK  351  A    between atoms: _900  and  _901
REMARK                            x       y       z     vdW  Elec       q    Type
REMARK                         _______ _______ _______ _____ _____    ______ ____
ROOT
ATOM      1  O   HOH     1      -4.075   9.430  31.899  0.00  0.00    +0.000 OA
ENDROOT
TORSDOF 0
REMARK  Name = ../refined-set-2016/4o2c/4o2c_pocket.pdb
REMARK  351 active torsions:
REMARK  status: ('A' for Active; 'I' for Inactive)
REMARK    1  A    between atoms: _1  and  _3
REMARK    2  A    between atoms: _3  and  _4
REMARK    3  A    between atoms: _3  and  _6
REMARK    4  A    between atoms: _6  and  _7
REMARK    5  A    between atoms: _7  and  _8
REMARK    6  A    between atoms: _10  and  _12
REMARK    7  A    between atoms: _12  and  _13
REMARK    8  A    between atoms: _12  and  _15
REMARK    9  A    between atoms: _15  and  _16
REMARK   10  A    between atoms: _16  and  _17
REMARK   11  A    between atoms: _17  and  _18
REMARK   12  A    between atoms: _27  and  _29
REMARK   13  A    between atoms: _29  and  _30
REMARK   14  A    between atoms: _29  and  _32
REMARK   15  A    between atoms: _32  and  _33
REMARK   16  A    between atoms: _38  and  _39
REMARK   17  A    between atoms: _41  and  _43
REMARK   18  A    between atoms: _43  and  _44
REMARK   19  A    between atoms: _43  and  _46
REMARK   20  A    between atoms: _46  and  _47
REMARK   21  A    between atoms: _53  and  _55
REMARK   22  A    between atoms: _55  and  _56
REMARK   23  A    between atoms: _55  and  _58
REMARK   24  A    between atoms: _58  and  _59
REMARK   25  A    between atoms: _64  and  _65
REMARK   26  A    between atoms: _67  and  _69
REMARK   27  A    between atoms: _69  and  _70
REMARK   28  A    between atoms: _69  and  _72
REMARK   29  A    between atoms: _72  and  _73
REMARK   30  A    between atoms: _79  and  _81
REMARK   31  A    between atoms: _81  and  _82
REMARK   32  A    between atoms: _81  and  _84
REMARK   33  A    between atoms: _84  and  _85
REMARK   34  A    between atoms: _88  and  _90
REMARK   35  A    between atoms: _90  and  _91
REMARK   36  A    between atoms: _90  and  _93
REMARK   37  A    between atoms: _93  and  _94
REMARK   38  A    between atoms: _96  and  _98
REMARK   39  A    between atoms: _98  and  _99
REMARK   40  A    between atoms: _98  and  _101
REMARK   41  A    between atoms: _104  and  _106
REMARK   42  A    between atoms: _106  and  _107
REMARK   43  A    between atoms: _109  and  _111
REMARK   44  A    between atoms: _111  and  _112
REMARK   45  A    between atoms: _111  and  _114
REMARK   46  A    between atoms: _114  and  _115
REMARK   47  A    between atoms: _121  and  _123
REMARK   48  A    between atoms: _123  and  _124
REMARK   49  A    between atoms: _123  and  _126
REMARK   50  A    between atoms: _129  and  _131
REMARK   51  A    between atoms: _131  and  _132
REMARK   52  A    between atoms: _131  and  _134
REMARK   53  A    between atoms: _134  and  _135
REMARK   54  A    between atoms: _135  and  _136
REMARK   55  A    between atoms: _136  and  _137
REMARK   56  A    between atoms: _146  and  _148
REMARK   57  A    between atoms: _148  and  _149
REMARK   58  A    between atoms: _148  and  _151
REMARK   59  A    between atoms: _151  and  _152
REMARK   60  A    between atoms: _158  and  _160
REMARK   61  A    between atoms: _160  and  _161
REMARK   62  A    between atoms: _160  and  _163
REMARK   63  A    between atoms: _163  and  _164
REMARK   64  A    between atoms: _164  and  _165
REMARK   65  A    between atoms: _168  and  _170
REMARK   66  A    between atoms: _170  and  _171
REMARK   67  A    between atoms: _170  and  _173
REMARK   68  A    between atoms: _173  and  _174
REMARK   69  A    between atoms: _174  and  _175
REMARK   70  A    between atoms: _178  and  _180
REMARK   71  A    between atoms: _180  and  _181
REMARK   72  A    between atoms: _180  and  _183
REMARK   73  A    between atoms: _183  and  _184
REMARK   74  A    between atoms: _187  and  _189
REMARK   75  A    between atoms: _189  and  _190
REMARK   76  A    between atoms: _189  and  _192
REMARK   77  A    between atoms: _192  and  _193
REMARK   78  A    between atoms: _193  and  _194
REMARK   79  A    between atoms: _197  and  _199
REMARK   80  A    between atoms: _199  and  _200
REMARK   81  A    between atoms: _199  and  _202
REMARK   82  A    between atoms: _202  and  _203
REMARK   83  A    between atoms: _203  and  _204
REMARK   84  A    between atoms: _207  and  _209
REMARK   85  A    between atoms: _209  and  _210
REMARK   86  A    between atoms: _209  and  _212
REMARK   87  A    between atoms: _212  and  _213
REMARK   88  A    between atoms: _218  and  _219
REMARK   89  A    between atoms: _221  and  _223
REMARK   90  A    between atoms: _223  and  _224
REMARK   91  A    between atoms: _223  and  _226
REMARK   92  A    between atoms: _226  and  _227
REMARK   93  A    between atoms: _237  and  _239
REMARK   94  A    between atoms: _239  and  _240
REMARK   95  A    between atoms: _239  and  _242
REMARK   96  A    between atoms: _242  and  _243
REMARK   97  A    between atoms: _246  and  _248
REMARK   98  A    between atoms: _248  and  _249
REMARK   99  A    between atoms: _248  and  _251
REMARK  100  A    between atoms: _251  and  _252
REMARK  101  A    between atoms: _252  and  _253
REMARK  102  A    between atoms: _253  and  _254
REMARK  103  A    between atoms: _263  and  _265
REMARK  104  A    between atoms: _265  and  _266
REMARK  105  A    between atoms: _265  and  _268
REMARK  106  A    between atoms: _268  and  _269
REMARK  107  A    between atoms: _274  and  _276
REMARK  108  A    between atoms: _276  and  _277
REMARK  109  A    between atoms: _276  and  _279
REMARK  110  A    between atoms: _279  and  _280
REMARK  111  A    between atoms: _283  and  _285
REMARK  112  A    between atoms: _285  and  _286
REMARK  113  A    between atoms: _285  and  _288
REMARK  114  A    between atoms: _288  and  _289
REMARK  115  A    between atoms: _289  and  _290
REMARK  116  A    between atoms: _295  and  _297
REMARK  117  A    between atoms: _297  and  _298
REMARK  118  A    between atoms: _297  and  _300
REMARK  119  A    between atoms: _300  and  _301
REMARK  120  A    between atoms: _304  and  _306
REMARK  121  A    between atoms: _306  and  _307
REMARK  122  A    between atoms: _306  and  _309
REMARK  123  A    between atoms: _311  and  _313
REMARK  124  A    between atoms: _313  and  _314
REMARK  125  A    between atoms: _313  and  _316
REMARK  126  A    between atoms: _316  and  _317
REMARK  127  A    between atoms: _320  and  _322
REMARK  128  A    between atoms: _322  and  _323
REMARK  129  A    between atoms: _322  and  _325
REMARK  130  A    between atoms: _325  and  _326
REMARK  131  A    between atoms: _331  and  _333
REMARK  132  A    between atoms: _333  and  _334
REMARK  133  A    between atoms: _333  and  _336
REMARK  134  A    between atoms: _336  and  _337
REMARK  135  A    between atoms: _337  and  _338
REMARK  136  A    between atoms: _343  and  _345
REMARK  137  A    between atoms: _345  and  _346
REMARK  138  A    between atoms: _345  and  _348
REMARK  139  A    between atoms: _348  and  _349
REMARK  140  A    between atoms: _352  and  _354
REMARK  141  A    between atoms: _354  and  _355
REMARK  142  A    between atoms: _354  and  _357
REMARK  143  A    between atoms: _357  and  _358
REMARK  144  A    between atoms: _361  and  _363
REMARK  145  A    between atoms: _363  and  _364
REMARK  146  A    between atoms: _363  and  _366
REMARK  147  A    between atoms: _366  and  _367
REMARK  148  A    between atoms: _367  and  _368
REMARK  149  A    between atoms: _368  and  _369
REMARK  150  A    between atoms: _378  and  _380
REMARK  151  A    between atoms: _380  and  _381
REMARK  152  A    between atoms: _380  and  _383
REMARK  153  A    between atoms: _383  and  _384
REMARK  154  A    between atoms: _384  and  _385
REMARK  155  A    between atoms: _388  and  _390
REMARK  156  A    between atoms: _390  and  _391
REMARK  157  A    between atoms: _390  and  _393
REMARK  158  A    between atoms: _393  and  _394
REMARK  159  A    between atoms: _396  and  _398
REMARK  160  A    between atoms: _398  and  _399
REMARK  161  A    between atoms: _398  and  _401
REMARK  162  A    between atoms: _401  and  _402
REMARK  163  A    between atoms: _405  and  _407
REMARK  164  A    between atoms: _407  and  _408
REMARK  165  A    between atoms: _407  and  _410
REMARK  166  A    between atoms: _410  and  _411
REMARK  167  A    between atoms: _411  and  _412
REMARK  168  A    between atoms: _412  and  _413
REMARK  169  A    between atoms: _422  and  _424
REMARK  170  A    between atoms: _424  and  _425
REMARK  171  A    between atoms: _424  and  _427
REMARK  172  A    between atoms: _427  and  _428
REMARK  173  A    between atoms: _433  and  _435
REMARK  174  A    between atoms: _435  and  _436
REMARK  175  A    between atoms: _435  and  _438
REMARK  176  A    between atoms: _438  and  _439
REMARK  177  A    between atoms: _442  and  _444
REMARK  178  A    between atoms: _444  and  _445
REMARK  179  A    between atoms: _444  and  _447
REMARK  180  A    between atoms: _447  and  _448
REMARK  181  A    between atoms: _453  and  _454
REMARK  182  A    between atoms: _456  and  _458
REMARK  183  A    between atoms: _458  and  _459
REMARK  184  A    between atoms: _458  and  _461
REMARK  185  A    between atoms: _461  and  _462
REMARK  186  A    between atoms: _465  and  _467
REMARK  187  A    between atoms: _467  and  _468
REMARK  188  A    between atoms: _467  and  _470
REMARK  189  A    between atoms: _470  and  _471
REMARK  190  A    between atoms: _471  and  _472
REMARK  191  A    between atoms: _477  and  _479
REMARK  192  A    between atoms: _479  and  _480
REMARK  193  A    between atoms: _479  and  _482
REMARK  194  A    between atoms: _482  and  _483
REMARK  195  A    between atoms: _483  and  _484
REMARK  196  A    between atoms: _484  and  _485
REMARK  197  A    between atoms: _494  and  _496
REMARK  198  A    between atoms: _496  and  _497
REMARK  199  A    between atoms: _496  and  _499
REMARK  200  A    between atoms: _499  and  _500
REMARK  201  A    between atoms: _505  and  _506
REMARK  202  A    between atoms: _508  and  _510
REMARK  203  A    between atoms: _510  and  _511
REMARK  204  A    between atoms: _513  and  _515
REMARK  205  A    between atoms: _515  and  _516
REMARK  206  A    between atoms: _515  and  _518
REMARK  207  A    between atoms: _518  and  _519
REMARK  208  A    between atoms: _524  and  _526
REMARK  209  A    between atoms: _526  and  _527
REMARK  210  A    between atoms: _526  and  _529
REMARK  211  A    between atoms: _529  and  _530
REMARK  212  A    between atoms: _530  and  _531
REMARK  213  A    between atoms: _536  and  _538
REMARK  214  A    between atoms: _538  and  _539
REMARK  215  A    between atoms: _538  and  _541
REMARK  216  A    between atoms: _541  and  _542
REMARK  217  A    between atoms: _548  and  _550
REMARK  218  A    between atoms: _550  and  _551
REMARK  219  A    between atoms: _554  and  _556
REMARK  220  A    between atoms: _556  and  _557
REMARK  221  A    between atoms: _556  and  _559
REMARK  222  A    between atoms: _559  and  _560
REMARK  223  A    between atoms: _565  and  _566
REMARK  224  A    between atoms: _568  and  _570
REMARK  225  A    between atoms: _570  and  _571
REMARK  226  A    between atoms: _570  and  _573
REMARK  227  A    between atoms: _573  and  _574
REMARK  228  A    between atoms: _579  and  _580
REMARK  229  A    between atoms: _582  and  _584
REMARK  230  A    between atoms: _584  and  _585
REMARK  231  A    between atoms: _584  and  _587
REMARK  232  A    between atoms: _587  and  _588
REMARK  233  A    between atoms: _591  and  _593
REMARK  234  A    between atoms: _593  and  _594
REMARK  235  A    between atoms: _593  and  _596
REMARK  236  A    between atoms: _596  and  _597
REMARK  237  A    between atoms: _607  and  _609
REMARK  238  A    between atoms: _609  and  _610
REMARK  239  A    between atoms: _613  and  _615
REMARK  240  A    between atoms: _615  and  _616
REMARK  241  A    between atoms: _619  and  _621
REMARK  242  A    between atoms: _621  and  _622
REMARK  243  A    between atoms: _621  and  _624
REMARK  244  A    between atoms: _624  and  _625
REMARK  245  A    between atoms: _625  and  _626
REMARK  246  A    between atoms: _631  and  _633
REMARK  247  A    between atoms: _633  and  _634
REMARK  248  A    between atoms: _633  and  _636
REMARK  249  A    between atoms: _636  and  _637
REMARK  250  A    between atoms: _640  and  _642
REMARK  251  A    between atoms: _642  and  _643
REMARK  252  A    between atoms: _642  and  _645
REMARK  253  A    between atoms: _645  and  _646
REMARK  254  A    between atoms: _649  and  _651
REMARK  255  A    between atoms: _651  and  _652
REMARK  256  A    between atoms: _651  and  _654
REMARK  257  A    between atoms: _654  and  _655
REMARK  258  A    between atoms: _655  and  _656
REMARK  259  A    between atoms: _661  and  _663
REMARK  260  A    between atoms: _663  and  _664
REMARK  261  A    between atoms: _663  and  _666
REMARK  262  A    between atoms: _666  and  _667
REMARK  263  A    between atoms: _667  and  _668
REMARK  264  A    between atoms: _668  and  _669
REMARK  265  A    between atoms: _678  and  _680
REMARK  266  A    between atoms: _680  and  _681
REMARK  267  A    between atoms: _680  and  _683
REMARK  268  A    between atoms: _683  and  _684
REMARK  269  A    between atoms: _684  and  _685
REMARK  270  A    between atoms: _685  and  _686
REMARK  271  A    between atoms: _686  and  _687
REMARK  272  A    between atoms: _691  and  _693
REMARK  273  A    between atoms: _693  and  _694
REMARK  274  A    between atoms: _693  and  _696
REMARK  275  A    between atoms: _696  and  _697
REMARK  276  A    between atoms: _707  and  _709
REMARK  277  A    between atoms: _709  and  _710
REMARK  278  A    between atoms: _713  and  _715
REMARK  279  A    between atoms: _715  and  _716
REMARK  280  A    between atoms: _719  and  _721
REMARK  281  A    between atoms: _721  and  _722
REMARK  282  A    between atoms: _721  and  _724
REMARK  283  A    between atoms: _724  and  _725
REMARK  284  A    between atoms: _725  and  _726
REMARK  285  A    between atoms: _726  and  _727
REMARK  286  A    between atoms: _736  and  _738
REMARK  287  A    between atoms: _738  and  _739
REMARK  288  A    between atoms: _738  and  _741
REMARK  289  A    between atoms: _744  and  _746
REMARK  290  A    between atoms: _746  and  _747
REMARK  291  A    between atoms: _750  and  _752
REMARK  292  A    between atoms: _752  and  _753
REMARK  293  A    between atoms: _752  and  _755
REMARK  294  A    between atoms: _755  and  _756
REMARK  295  A    between atoms: _756  and  _757
REMARK  296  A    between atoms: _760  and  _762
REMARK  297  A    between atoms: _762  and  _763
REMARK  298  A    between atoms: _762  and  _765
REMARK  299  A    between atoms: _765  and  _766
REMARK  300  A    between atoms: _766  and  _767
REMARK  301  A    between atoms: _772  and  _774
REMARK  302  A    between atoms: _774  and  _775
REMARK  303  A    between atoms: _774  and  _777
REMARK  304  A    between atoms: _777  and  _778
REMARK  305  A    between atoms: _781  and  _783
REMARK  306  A    between atoms: _783  and  _784
REMARK  307  A    between atoms: _783  and  _786
REMARK  308  A    between atoms: _786  and  _787
REMARK  309  A    between atoms: _787  and  _788
REMARK  310  A    between atoms: _788  and  _789
REMARK  311  A    between atoms: _798  and  _800
REMARK  312  A    between atoms: _800  and  _801
REMARK  313  A    between atoms: _800  and  _803
REMARK  314  A    between atoms: _803  and  _804
REMARK  315  A    between atoms: _807  and  _809
REMARK  316  A    between atoms: _809  and  _810
REMARK  317  A    between atoms: _809  and  _812
REMARK  318  A    between atoms: _812  and  _813
REMARK  319  A    between atoms: _818  and  _819
REMARK  320  A    between atoms: _821  and  _823
REMARK  321  A    between atoms: _823  and  _824
REMARK  322  A    between atoms: _823  and  _826
REMARK  323  A    between atoms: _826  and  _827
REMARK  324  A    between atoms: _830  and  _832
REMARK  325  A    between atoms: _832  and  _833
REMARK  326  A    between atoms: _832  and  _835
REMARK  327  A    between atoms: _835  and  _836
REMARK  328  A    between atoms: _839  and  _841
REMARK  329  A    between atoms: _841  and  _842
REMARK  330  A    between atoms: _841  and  _844
REMARK  331  A    between atoms: _846  and  _848
REMARK  332  A    between atoms: _848  and  _849
REMARK  333  A    between atoms: _848  and  _851
REMARK  334  A    between atoms: _854  and  _856
REMARK  335  A    between atoms: _856  and  _857
REMARK  336  A    between atoms: _856  and  _859
REMARK  337  A    between atoms: _859  and  _860
REMARK  338  A    between atoms: _860  and  _861
REMARK  339  A    between atoms: _864  and  _866
REMARK  340  A    between atoms: _866  and  _867
REMARK  341  A    between atoms: _866  and  _869
REMARK  342  A    between atoms: _869  and  _870
REMARK  343  A    between atoms: _880  and  _882
REMARK  344  A    between atoms: _882  and  _883
REMARK  345  A    between atoms: _882  and  _885
REMARK  346  A    between atoms: _885  and  _886
REMARK  347  A    between atoms: _889  and  _891
REMARK  348  A    between atoms: _891  and  _892
REMARK  349  A    between atoms: _891  and  _894
REMARK  350  A    between atoms: _894  and  _895
REMARK  351  A    between atoms: _900  and  _901
REMARK                            x       y       z     vdW  Elec       q    Type
REMARK                         _______ _______ _______ _____ _____    ______ ____
ROOT
ATOM      1  O   HOH     1      10.213   6.021  32.300  0.00  0.00    +0.000 OA
ENDROOT
TORSDOF 0
REMARK  Name = ../refined-set-2016/4o2c/4o2c_pocket.pdb
REMARK  351 active torsions:
REMARK  status: ('A' for Active; 'I' for Inactive)
REMARK    1  A    between atoms: _1  and  _3
REMARK    2  A    between atoms: _3  and  _4
REMARK    3  A    between atoms: _3  and  _6
REMARK    4  A    between atoms: _6  and  _7
REMARK    5  A    between atoms: _7  and  _8
REMARK    6  A    between atoms: _10  and  _12
REMARK    7  A    between atoms: _12  and  _13
REMARK    8  A    between atoms: _12  and  _15
REMARK    9  A    between atoms: _15  and  _16
REMARK   10  A    between atoms: _16  and  _17
REMARK   11  A    between atoms: _17  and  _18
REMARK   12  A    between atoms: _27  and  _29
REMARK   13  A    between atoms: _29  and  _30
REMARK   14  A    between atoms: _29  and  _32
REMARK   15  A    between atoms: _32  and  _33
REMARK   16  A    between atoms: _38  and  _39
REMARK   17  A    between atoms: _41  and  _43
REMARK   18  A    between atoms: _43  and  _44
REMARK   19  A    between atoms: _43  and  _46
REMARK   20  A    between atoms: _46  and  _47
REMARK   21  A    between atoms: _53  and  _55
REMARK   22  A    between atoms: _55  and  _56
REMARK   23  A    between atoms: _55  and  _58
REMARK   24  A    between atoms: _58  and  _59
REMARK   25  A    between atoms: _64  and  _65
REMARK   26  A    between atoms: _67  and  _69
REMARK   27  A    between atoms: _69  and  _70
REMARK   28  A    between atoms: _69  and  _72
REMARK   29  A    between atoms: _72  and  _73
REMARK   30  A    between atoms: _79  and  _81
REMARK   31  A    between atoms: _81  and  _82
REMARK   32  A    between atoms: _81  and  _84
REMARK   33  A    between atoms: _84  and  _85
REMARK   34  A    between atoms: _88  and  _90
REMARK   35  A    between atoms: _90  and  _91
REMARK   36  A    between atoms: _90  and  _93
REMARK   37  A    between atoms: _93  and  _94
REMARK   38  A    between atoms: _96  and  _98
REMARK   39  A    between atoms: _98  and  _99
REMARK   40  A    between atoms: _98  and  _101
REMARK   41  A    between atoms: _104  and  _106
REMARK   42  A    between atoms: _106  and  _107
REMARK   43  A    between atoms: _109  and  _111
REMARK   44  A    between atoms: _111  and  _112
REMARK   45  A    between atoms: _111  and  _114
REMARK   46  A    between atoms: _114  and  _115
REMARK   47  A    between atoms: _121  and  _123
REMARK   48  A    between atoms: _123  and  _124
REMARK   49  A    between atoms: _123  and  _126
REMARK   50  A    between atoms: _129  and  _131
REMARK   51  A    between atoms: _131  and  _132
REMARK   52  A    between atoms: _131  and  _134
REMARK   53  A    between atoms: _134  and  _135
REMARK   54  A    between atoms: _135  and  _136
REMARK   55  A    between atoms: _136  and  _137
REMARK   56  A    between atoms: _146  and  _148
REMARK   57  A    between atoms: _148  and  _149
REMARK   58  A    between atoms: _148  and  _151
REMARK   59  A    between atoms: _151  and  _152
REMARK   60  A    between atoms: _158  and  _160
REMARK   61  A    between atoms: _160  and  _161
REMARK   62  A    between atoms: _160  and  _163
REMARK   63  A    between atoms: _163  and  _164
REMARK   64  A    between atoms: _164  and  _165
REMARK   65  A    between atoms: _168  and  _170
REMARK   66  A    between atoms: _170  and  _171
REMARK   67  A    between atoms: _170  and  _173
REMARK   68  A    between atoms: _173  and  _174
REMARK   69  A    between atoms: _174  and  _175
REMARK   70  A    between atoms: _178  and  _180
REMARK   71  A    between atoms: _180  and  _181
REMARK   72  A    between atoms: _180  and  _183
REMARK   73  A    between atoms: _183  and  _184
REMARK   74  A    between atoms: _187  and  _189
REMARK   75  A    between atoms: _189  and  _190
REMARK   76  A    between atoms: _189  and  _192
REMARK   77  A    between atoms: _192  and  _193
REMARK   78  A    between atoms: _193  and  _194
REMARK   79  A    between atoms: _197  and  _199
REMARK   80  A    between atoms: _199  and  _200
REMARK   81  A    between atoms: _199  and  _202
REMARK   82  A    between atoms: _202  and  _203
REMARK   83  A    between atoms: _203  and  _204
REMARK   84  A    between atoms: _207  and  _209
REMARK   85  A    between atoms: _209  and  _210
REMARK   86  A    between atoms: _209  and  _212
REMARK   87  A    between atoms: _212  and  _213
REMARK   88  A    between atoms: _218  and  _219
REMARK   89  A    between atoms: _221  and  _223
REMARK   90  A    between atoms: _223  and  _224
REMARK   91  A    between atoms: _223  and  _226
REMARK   92  A    between atoms: _226  and  _227
REMARK   93  A    between atoms: _237  and  _239
REMARK   94  A    between atoms: _239  and  _240
REMARK   95  A    between atoms: _239  and  _242
REMARK   96  A    between atoms: _242  and  _243
REMARK   97  A    between atoms: _246  and  _248
REMARK   98  A    between atoms: _248  and  _249
REMARK   99  A    between atoms: _248  and  _251
REMARK  100  A    between atoms: _251  and  _252
REMARK  101  A    between atoms: _252  and  _253
REMARK  102  A    between atoms: _253  and  _254
REMARK  103  A    between atoms: _263  and  _265
REMARK  104  A    between atoms: _265  and  _266
REMARK  105  A    between atoms: _265  and  _268
REMARK  106  A    between atoms: _268  and  _269
REMARK  107  A    between atoms: _274  and  _276
REMARK  108  A    between atoms: _276  and  _277
REMARK  109  A    between atoms: _276  and  _279
REMARK  110  A    between atoms: _279  and  _280
REMARK  111  A    between atoms: _283  and  _285
REMARK  112  A    between atoms: _285  and  _286
REMARK  113  A    between atoms: _285  and  _288
REMARK  114  A    between atoms: _288  and  _289
REMARK  115  A    between atoms: _289  and  _290
REMARK  116  A    between atoms: _295  and  _297
REMARK  117  A    between atoms: _297  and  _298
REMARK  118  A    between atoms: _297  and  _300
REMARK  119  A    between atoms: _300  and  _301
REMARK  120  A    between atoms: _304  and  _306
REMARK  121  A    between atoms: _306  and  _307
REMARK  122  A    between atoms: _306  and  _309
REMARK  123  A    between atoms: _311  and  _313
REMARK  124  A    between atoms: _313  and  _314
REMARK  125  A    between atoms: _313  and  _316
REMARK  126  A    between atoms: _316  and  _317
REMARK  127  A    between atoms: _320  and  _322
REMARK  128  A    between atoms: _322  and  _323
REMARK  129  A    between atoms: _322  and  _325
REMARK  130  A    between atoms: _325  and  _326
REMARK  131  A    between atoms: _331  and  _333
REMARK  132  A    between atoms: _333  and  _334
REMARK  133  A    between atoms: _333  and  _336
REMARK  134  A    between atoms: _336  and  _337
REMARK  135  A    between atoms: _337  and  _338
REMARK  136  A    between atoms: _343  and  _345
REMARK  137  A    between atoms: _345  and  _346
REMARK  138  A    between atoms: _345  and  _348
REMARK  139  A    between atoms: _348  and  _349
REMARK  140  A    between atoms: _352  and  _354
REMARK  141  A    between atoms: _354  and  _355
REMARK  142  A    between atoms: _354  and  _357
REMARK  143  A    between atoms: _357  and  _358
REMARK  144  A    between atoms: _361  and  _363
REMARK  145  A    between atoms: _363  and  _364
REMARK  146  A    between atoms: _363  and  _366
REMARK  147  A    between atoms: _366  and  _367
REMARK  148  A    between atoms: _367  and  _368
REMARK  149  A    between atoms: _368  and  _369
REMARK  150  A    between atoms: _378  and  _380
REMARK  151  A    between atoms: _380  and  _381
REMARK  152  A    between atoms: _380  and  _383
REMARK  153  A    between atoms: _383  and  _384
REMARK  154  A    between atoms: _384  and  _385
REMARK  155  A    between atoms: _388  and  _390
REMARK  156  A    between atoms: _390  and  _391
REMARK  157  A    between atoms: _390  and  _393
REMARK  158  A    between atoms: _393  and  _394
REMARK  159  A    between atoms: _396  and  _398
REMARK  160  A    between atoms: _398  and  _399
REMARK  161  A    between atoms: _398  and  _401
REMARK  162  A    between atoms: _401  and  _402
REMARK  163  A    between atoms: _405  and  _407
REMARK  164  A    between atoms: _407  and  _408
REMARK  165  A    between atoms: _407  and  _410
REMARK  166  A    between atoms: _410  and  _411
REMARK  167  A    between atoms: _411  and  _412
REMARK  168  A    between atoms: _412  and  _413
REMARK  169  A    between atoms: _422  and  _424
REMARK  170  A    between atoms: _424  and  _425
REMARK  171  A    between atoms: _424  and  _427
REMARK  172  A    between atoms: _427  and  _428
REMARK  173  A    between atoms: _433  and  _435
REMARK  174  A    between atoms: _435  and  _436
REMARK  175  A    between atoms: _435  and  _438
REMARK  176  A    between atoms: _438  and  _439
REMARK  177  A    between atoms: _442  and  _444
REMARK  178  A    between atoms: _444  and  _445
REMARK  179  A    between atoms: _444  and  _447
REMARK  180  A    between atoms: _447  and  _448
REMARK  181  A    between atoms: _453  and  _454
REMARK  182  A    between atoms: _456  and  _458
REMARK  183  A    between atoms: _458  and  _459
REMARK  184  A    between atoms: _458  and  _461
REMARK  185  A    between atoms: _461  and  _462
REMARK  186  A    between atoms: _465  and  _467
REMARK  187  A    between atoms: _467  and  _468
REMARK  188  A    between atoms: _467  and  _470
REMARK  189  A    between atoms: _470  and  _471
REMARK  190  A    between atoms: _471  and  _472
REMARK  191  A    between atoms: _477  and  _479
REMARK  192  A    between atoms: _479  and  _480
REMARK  193  A    between atoms: _479  and  _482
REMARK  194  A    between atoms: _482  and  _483
REMARK  195  A    between atoms: _483  and  _484
REMARK  196  A    between atoms: _484  and  _485
REMARK  197  A    between atoms: _494  and  _496
REMARK  198  A    between atoms: _496  and  _497
REMARK  199  A    between atoms: _496  and  _499
REMARK  200  A    between atoms: _499  and  _500
REMARK  201  A    between atoms: _505  and  _506
REMARK  202  A    between atoms: _508  and  _510
REMARK  203  A    between atoms: _510  and  _511
REMARK  204  A    between atoms: _513  and  _515
REMARK  205  A    between atoms: _515  and  _516
REMARK  206  A    between atoms: _515  and  _518
REMARK  207  A    between atoms: _518  and  _519
REMARK  208  A    between atoms: _524  and  _526
REMARK  209  A    between atoms: _526  and  _527
REMARK  210  A    between atoms: _526  and  _529
REMARK  211  A    between atoms: _529  and  _530
REMARK  212  A    between atoms: _530  and  _531
REMARK  213  A    between atoms: _536  and  _538
REMARK  214  A    between atoms: _538  and  _539
REMARK  215  A    between atoms: _538  and  _541
REMARK  216  A    between atoms: _541  and  _542
REMARK  217  A    between atoms: _548  and  _550
REMARK  218  A    between atoms: _550  and  _551
REMARK  219  A    between atoms: _554  and  _556
REMARK  220  A    between atoms: _556  and  _557
REMARK  221  A    between atoms: _556  and  _559
REMARK  222  A    between atoms: _559  and  _560
REMARK  223  A    between atoms: _565  and  _566
REMARK  224  A    between atoms: _568  and  _570
REMARK  225  A    between atoms: _570  and  _571
REMARK  226  A    between atoms: _570  and  _573
REMARK  227  A    between atoms: _573  and  _574
REMARK  228  A    between atoms: _579  and  _580
REMARK  229  A    between atoms: _582  and  _584
REMARK  230  A    between atoms: _584  and  _585
REMARK  231  A    between atoms: _584  and  _587
REMARK  232  A    between atoms: _587  and  _588
REMARK  233  A    between atoms: _591  and  _593
REMARK  234  A    between atoms: _593  and  _594
REMARK  235  A    between atoms: _593  and  _596
REMARK  236  A    between atoms: _596  and  _597
REMARK  237  A    between atoms: _607  and  _609
REMARK  238  A    between atoms: _609  and  _610
REMARK  239  A    between atoms: _613  and  _615
REMARK  240  A    between atoms: _615  and  _616
REMARK  241  A    between atoms: _619  and  _621
REMARK  242  A    between atoms: _621  and  _622
REMARK  243  A    between atoms: _621  and  _624
REMARK  244  A    between atoms: _624  and  _625
REMARK  245  A    between atoms: _625  and  _626
REMARK  246  A    between atoms: _631  and  _633
REMARK  247  A    between atoms: _633  and  _634
REMARK  248  A    between atoms: _633  and  _636
REMARK  249  A    between atoms: _636  and  _637
REMARK  250  A    between atoms: _640  and  _642
REMARK  251  A    between atoms: _642  and  _643
REMARK  252  A    between atoms: _642  and  _645
REMARK  253  A    between atoms: _645  and  _646
REMARK  254  A    between atoms: _649  and  _651
REMARK  255  A    between atoms: _651  and  _652
REMARK  256  A    between atoms: _651  and  _654
REMARK  257  A    between atoms: _654  and  _655
REMARK  258  A    between atoms: _655  and  _656
REMARK  259  A    between atoms: _661  and  _663
REMARK  260  A    between atoms: _663  and  _664
REMARK  261  A    between atoms: _663  and  _666
REMARK  262  A    between atoms: _666  and  _667
REMARK  263  A    between atoms: _667  and  _668
REMARK  264  A    between atoms: _668  and  _669
REMARK  265  A    between atoms: _678  and  _680
REMARK  266  A    between atoms: _680  and  _681
REMARK  267  A    between atoms: _680  and  _683
REMARK  268  A    between atoms: _683  and  _684
REMARK  269  A    between atoms: _684  and  _685
REMARK  270  A    between atoms: _685  and  _686
REMARK  271  A    between atoms: _686  and  _687
REMARK  272  A    between atoms: _691  and  _693
REMARK  273  A    between atoms: _693  and  _694
REMARK  274  A    between atoms: _693  and  _696
REMARK  275  A    between atoms: _696  and  _697
REMARK  276  A    between atoms: _707  and  _709
REMARK  277  A    between atoms: _709  and  _710
REMARK  278  A    between atoms: _713  and  _715
REMARK  279  A    between atoms: _715  and  _716
REMARK  280  A    between atoms: _719  and  _721
REMARK  281  A    between atoms: _721  and  _722
REMARK  282  A    between atoms: _721  and  _724
REMARK  283  A    between atoms: _724  and  _725
REMARK  284  A    between atoms: _725  and  _726
REMARK  285  A    between atoms: _726  and  _727
REMARK  286  A    between atoms: _736  and  _738
REMARK  287  A    between atoms: _738  and  _739
REMARK  288  A    between atoms: _738  and  _741
REMARK  289  A    between atoms: _744  and  _746
REMARK  290  A    between atoms: _746  and  _747
REMARK  291  A    between atoms: _750  and  _752
REMARK  292  A    between atoms: _752  and  _753
REMARK  293  A    between atoms: _752  and  _755
REMARK  294  A    between atoms: _755  and  _756
REMARK  295  A    between atoms: _756  and  _757
REMARK  296  A    between atoms: _760  and  _762
REMARK  297  A    between atoms: _762  and  _763
REMARK  298  A    between atoms: _762  and  _765
REMARK  299  A    between atoms: _765  and  _766
REMARK  300  A    between atoms: _766  and  _767
REMARK  301  A    between atoms: _772  and  _774
REMARK  302  A    between atoms: _774  and  _775
REMARK  303  A    between atoms: _774  and  _777
REMARK  304  A    between atoms: _777  and  _778
REMARK  305  A    between atoms: _781  and  _783
REMARK  306  A    between atoms: _783  and  _784
REMARK  307  A    between atoms: _783  and  _786
REMARK  308  A    between atoms: _786  and  _787
REMARK  309  A    between atoms: _787  and  _788
REMARK  310  A    between atoms: _788  and  _789
REMARK  311  A    between atoms: _798  and  _800
REMARK  312  A    between atoms: _800  and  _801
REMARK  313  A    between atoms: _800  and  _803
REMARK  314  A    between atoms: _803  and  _804
REMARK  315  A    between atoms: _807  and  _809
REMARK  316  A    between atoms: _809  and  _810
REMARK  317  A    between atoms: _809  and  _812
REMARK  318  A    between atoms: _812  and  _813
REMARK  319  A    between atoms: _818  and  _819
REMARK  320  A    between atoms: _821  and  _823
REMARK  321  A    between atoms: _823  and  _824
REMARK  322  A    between atoms: _823  and  _826
REMARK  323  A    between atoms: _826  and  _827
REMARK  324  A    between atoms: _830  and  _832
REMARK  325  A    between atoms: _832  and  _833
REMARK  326  A    between atoms: _832  and  _835
REMARK  327  A    between atoms: _835  and  _836
REMARK  328  A    between atoms: _839  and  _841
REMARK  329  A    between atoms: _841  and  _842
REMARK  330  A    between atoms: _841  and  _844
REMARK  331  A    between atoms: _846  and  _848
REMARK  332  A    between atoms: _848  and  _849
REMARK  333  A    between atoms: _848  and  _851
REMARK  334  A    between atoms: _854  and  _856
REMARK  335  A    between atoms: _856  and  _857
REMARK  336  A    between atoms: _856  and  _859
REMARK  337  A    between atoms: _859  and  _860
REMARK  338  A    between atoms: _860  and  _861
REMARK  339  A    between atoms: _864  and  _866
REMARK  340  A    between atoms: _866  and  _867
REMARK  341  A    between atoms: _866  and  _869
REMARK  342  A    between atoms: _869  and  _870
REMARK  343  A    between atoms: _880  and  _882
REMARK  344  A    between atoms: _882  and  _883
REMARK  345  A    between atoms: _882  and  _885
REMARK  346  A    between atoms: _885  and  _886
REMARK  347  A    between atoms: _889  and  _891
REMARK  348  A    between atoms: _891  and  _892
REMARK  349  A    between atoms: _891  and  _894
REMARK  350  A    between atoms: _894  and  _895
REMARK  351  A    between atoms: _900  and  _901
REMARK                            x       y       z     vdW  Elec       q    Type
REMARK                         _______ _______ _______ _____ _____    ______ ____
ROOT
ATOM      1  O   HOH     1      -2.476  17.036  32.117  0.00  0.00    +0.000 OA
ENDROOT
TORSDOF 0
REMARK  Name = ../refined-set-2016/4o2c/4o2c_pocket.pdb
REMARK  351 active torsions:
REMARK  status: ('A' for Active; 'I' for Inactive)
REMARK    1  A    between atoms: _1  and  _3
REMARK    2  A    between atoms: _3  and  _4
REMARK    3  A    between atoms: _3  and  _6
REMARK    4  A    between atoms: _6  and  _7
REMARK    5  A    between atoms: _7  and  _8
REMARK    6  A    between atoms: _10  and  _12
REMARK    7  A    between atoms: _12  and  _13
REMARK    8  A    between atoms: _12  and  _15
REMARK    9  A    between atoms: _15  and  _16
REMARK   10  A    between atoms: _16  and  _17
REMARK   11  A    between atoms: _17  and  _18
REMARK   12  A    between atoms: _27  and  _29
REMARK   13  A    between atoms: _29  and  _30
REMARK   14  A    between atoms: _29  and  _32
REMARK   15  A    between atoms: _32  and  _33
REMARK   16  A    between atoms: _38  and  _39
REMARK   17  A    between atoms: _41  and  _43
REMARK   18  A    between atoms: _43  and  _44
REMARK   19  A    between atoms: _43  and  _46
REMARK   20  A    between atoms: _46  and  _47
REMARK   21  A    between atoms: _53  and  _55
REMARK   22  A    between atoms: _55  and  _56
REMARK   23  A    between atoms: _55  and  _58
REMARK   24  A    between atoms: _58  and  _59
REMARK   25  A    between atoms: _64  and  _65
REMARK   26  A    between atoms: _67  and  _69
REMARK   27  A    between atoms: _69  and  _70
REMARK   28  A    between atoms: _69  and  _72
REMARK   29  A    between atoms: _72  and  _73
REMARK   30  A    between atoms: _79  and  _81
REMARK   31  A    between atoms: _81  and  _82
REMARK   32  A    between atoms: _81  and  _84
REMARK   33  A    between atoms: _84  and  _85
REMARK   34  A    between atoms: _88  and  _90
REMARK   35  A    between atoms: _90  and  _91
REMARK   36  A    between atoms: _90  and  _93
REMARK   37  A    between atoms: _93  and  _94
REMARK   38  A    between atoms: _96  and  _98
REMARK   39  A    between atoms: _98  and  _99
REMARK   40  A    between atoms: _98  and  _101
REMARK   41  A    between atoms: _104  and  _106
REMARK   42  A    between atoms: _106  and  _107
REMARK   43  A    between atoms: _109  and  _111
REMARK   44  A    between atoms: _111  and  _112
REMARK   45  A    between atoms: _111  and  _114
REMARK   46  A    between atoms: _114  and  _115
REMARK   47  A    between atoms: _121  and  _123
REMARK   48  A    between atoms: _123  and  _124
REMARK   49  A    between atoms: _123  and  _126
REMARK   50  A    between atoms: _129  and  _131
REMARK   51  A    between atoms: _131  and  _132
REMARK   52  A    between atoms: _131  and  _134
REMARK   53  A    between atoms: _134  and  _135
REMARK   54  A    between atoms: _135  and  _136
REMARK   55  A    between atoms: _136  and  _137
REMARK   56  A    between atoms: _146  and  _148
REMARK   57  A    between atoms: _148  and  _149
REMARK   58  A    between atoms: _148  and  _151
REMARK   59  A    between atoms: _151  and  _152
REMARK   60  A    between atoms: _158  and  _160
REMARK   61  A    between atoms: _160  and  _161
REMARK   62  A    between atoms: _160  and  _163
REMARK   63  A    between atoms: _163  and  _164
REMARK   64  A    between atoms: _164  and  _165
REMARK   65  A    between atoms: _168  and  _170
REMARK   66  A    between atoms: _170  and  _171
REMARK   67  A    between atoms: _170  and  _173
REMARK   68  A    between atoms: _173  and  _174
REMARK   69  A    between atoms: _174  and  _175
REMARK   70  A    between atoms: _178  and  _180
REMARK   71  A    between atoms: _180  and  _181
REMARK   72  A    between atoms: _180  and  _183
REMARK   73  A    between atoms: _183  and  _184
REMARK   74  A    between atoms: _187  and  _189
REMARK   75  A    between atoms: _189  and  _190
REMARK   76  A    between atoms: _189  and  _192
REMARK   77  A    between atoms: _192  and  _193
REMARK   78  A    between atoms: _193  and  _194
REMARK   79  A    between atoms: _197  and  _199
REMARK   80  A    between atoms: _199  and  _200
REMARK   81  A    between atoms: _199  and  _202
REMARK   82  A    between atoms: _202  and  _203
REMARK   83  A    between atoms: _203  and  _204
REMARK   84  A    between atoms: _207  and  _209
REMARK   85  A    between atoms: _209  and  _210
REMARK   86  A    between atoms: _209  and  _212
REMARK   87  A    between atoms: _212  and  _213
REMARK   88  A    between atoms: _218  and  _219
REMARK   89  A    between atoms: _221  and  _223
REMARK   90  A    between atoms: _223  and  _224
REMARK   91  A    between atoms: _223  and  _226
REMARK   92  A    between atoms: _226  and  _227
REMARK   93  A    between atoms: _237  and  _239
REMARK   94  A    between atoms: _239  and  _240
REMARK   95  A    between atoms: _239  and  _242
REMARK   96  A    between atoms: _242  and  _243
REMARK   97  A    between atoms: _246  and  _248
REMARK   98  A    between atoms: _248  and  _249
REMARK   99  A    between atoms: _248  and  _251
REMARK  100  A    between atoms: _251  and  _252
REMARK  101  A    between atoms: _252  and  _253
REMARK  102  A    between atoms: _253  and  _254
REMARK  103  A    between atoms: _263  and  _265
REMARK  104  A    between atoms: _265  and  _266
REMARK  105  A    between atoms: _265  and  _268
REMARK  106  A    between atoms: _268  and  _269
REMARK  107  A    between atoms: _274  and  _276
REMARK  108  A    between atoms: _276  and  _277
REMARK  109  A    between atoms: _276  and  _279
REMARK  110  A    between atoms: _279  and  _280
REMARK  111  A    between atoms: _283  and  _285
REMARK  112  A    between atoms: _285  and  _286
REMARK  113  A    between atoms: _285  and  _288
REMARK  114  A    between atoms: _288  and  _289
REMARK  115  A    between atoms: _289  and  _290
REMARK  116  A    between atoms: _295  and  _297
REMARK  117  A    between atoms: _297  and  _298
REMARK  118  A    between atoms: _297  and  _300
REMARK  119  A    between atoms: _300  and  _301
REMARK  120  A    between atoms: _304  and  _306
REMARK  121  A    between atoms: _306  and  _307
REMARK  122  A    between atoms: _306  and  _309
REMARK  123  A    between atoms: _311  and  _313
REMARK  124  A    between atoms: _313  and  _314
REMARK  125  A    between atoms: _313  and  _316
REMARK  126  A    between atoms: _316  and  _317
REMARK  127  A    between atoms: _320  and  _322
REMARK  128  A    between atoms: _322  and  _323
REMARK  129  A    between atoms: _322  and  _325
REMARK  130  A    between atoms: _325  and  _326
REMARK  131  A    between atoms: _331  and  _333
REMARK  132  A    between atoms: _333  and  _334
REMARK  133  A    between atoms: _333  and  _336
REMARK  134  A    between atoms: _336  and  _337
REMARK  135  A    between atoms: _337  and  _338
REMARK  136  A    between atoms: _343  and  _345
REMARK  137  A    between atoms: _345  and  _346
REMARK  138  A    between atoms: _345  and  _348
REMARK  139  A    between atoms: _348  and  _349
REMARK  140  A    between atoms: _352  and  _354
REMARK  141  A    between atoms: _354  and  _355
REMARK  142  A    between atoms: _354  and  _357
REMARK  143  A    between atoms: _357  and  _358
REMARK  144  A    between atoms: _361  and  _363
REMARK  145  A    between atoms: _363  and  _364
REMARK  146  A    between atoms: _363  and  _366
REMARK  147  A    between atoms: _366  and  _367
REMARK  148  A    between atoms: _367  and  _368
REMARK  149  A    between atoms: _368  and  _369
REMARK  150  A    between atoms: _378  and  _380
REMARK  151  A    between atoms: _380  and  _381
REMARK  152  A    between atoms: _380  and  _383
REMARK  153  A    between atoms: _383  and  _384
REMARK  154  A    between atoms: _384  and  _385
REMARK  155  A    between atoms: _388  and  _390
REMARK  156  A    between atoms: _390  and  _391
REMARK  157  A    between atoms: _390  and  _393
REMARK  158  A    between atoms: _393  and  _394
REMARK  159  A    between atoms: _396  and  _398
REMARK  160  A    between atoms: _398  and  _399
REMARK  161  A    between atoms: _398  and  _401
REMARK  162  A    between atoms: _401  and  _402
REMARK  163  A    between atoms: _405  and  _407
REMARK  164  A    between atoms: _407  and  _408
REMARK  165  A    between atoms: _407  and  _410
REMARK  166  A    between atoms: _410  and  _411
REMARK  167  A    between atoms: _411  and  _412
REMARK  168  A    between atoms: _412  and  _413
REMARK  169  A    between atoms: _422  and  _424
REMARK  170  A    between atoms: _424  and  _425
REMARK  171  A    between atoms: _424  and  _427
REMARK  172  A    between atoms: _427  and  _428
REMARK  173  A    between atoms: _433  and  _435
REMARK  174  A    between atoms: _435  and  _436
REMARK  175  A    between atoms: _435  and  _438
REMARK  176  A    between atoms: _438  and  _439
REMARK  177  A    between atoms: _442  and  _444
REMARK  178  A    between atoms: _444  and  _445
REMARK  179  A    between atoms: _444  and  _447
REMARK  180  A    between atoms: _447  and  _448
REMARK  181  A    between atoms: _453  and  _454
REMARK  182  A    between atoms: _456  and  _458
REMARK  183  A    between atoms: _458  and  _459
REMARK  184  A    between atoms: _458  and  _461
REMARK  185  A    between atoms: _461  and  _462
REMARK  186  A    between atoms: _465  and  _467
REMARK  187  A    between atoms: _467  and  _468
REMARK  188  A    between atoms: _467  and  _470
REMARK  189  A    between atoms: _470  and  _471
REMARK  190  A    between atoms: _471  and  _472
REMARK  191  A    between atoms: _477  and  _479
REMARK  192  A    between atoms: _479  and  _480
REMARK  193  A    between atoms: _479  and  _482
REMARK  194  A    between atoms: _482  and  _483
REMARK  195  A    between atoms: _483  and  _484
REMARK  196  A    between atoms: _484  and  _485
REMARK  197  A    between atoms: _494  and  _496
REMARK  198  A    between atoms: _496  and  _497
REMARK  199  A    between atoms: _496  and  _499
REMARK  200  A    between atoms: _499  and  _500
REMARK  201  A    between atoms: _505  and  _506
REMARK  202  A    between atoms: _508  and  _510
REMARK  203  A    between atoms: _510  and  _511
REMARK  204  A    between atoms: _513  and  _515
REMARK  205  A    between atoms: _515  and  _516
REMARK  206  A    between atoms: _515  and  _518
REMARK  207  A    between atoms: _518  and  _519
REMARK  208  A    between atoms: _524  and  _526
REMARK  209  A    between atoms: _526  and  _527
REMARK  210  A    between atoms: _526  and  _529
REMARK  211  A    between atoms: _529  and  _530
REMARK  212  A    between atoms: _530  and  _531
REMARK  213  A    between atoms: _536  and  _538
REMARK  214  A    between atoms: _538  and  _539
REMARK  215  A    between atoms: _538  and  _541
REMARK  216  A    between atoms: _541  and  _542
REMARK  217  A    between atoms: _548  and  _550
REMARK  218  A    between atoms: _550  and  _551
REMARK  219  A    between atoms: _554  and  _556
REMARK  220  A    between atoms: _556  and  _557
REMARK  221  A    between atoms: _556  and  _559
REMARK  222  A    between atoms: _559  and  _560
REMARK  223  A    between atoms: _565  and  _566
REMARK  224  A    between atoms: _568  and  _570
REMARK  225  A    between atoms: _570  and  _571
REMARK  226  A    between atoms: _570  and  _573
REMARK  227  A    between atoms: _573  and  _574
REMARK  228  A    between atoms: _579  and  _580
REMARK  229  A    between atoms: _582  and  _584
REMARK  230  A    between atoms: _584  and  _585
REMARK  231  A    between atoms: _584  and  _587
REMARK  232  A    between atoms: _587  and  _588
REMARK  233  A    between atoms: _591  and  _593
REMARK  234  A    between atoms: _593  and  _594
REMARK  235  A    between atoms: _593  and  _596
REMARK  236  A    between atoms: _596  and  _597
REMARK  237  A    between atoms: _607  and  _609
REMARK  238  A    between atoms: _609  and  _610
REMARK  239  A    between atoms: _613  and  _615
REMARK  240  A    between atoms: _615  and  _616
REMARK  241  A    between atoms: _619  and  _621
REMARK  242  A    between atoms: _621  and  _622
REMARK  243  A    between atoms: _621  and  _624
REMARK  244  A    between atoms: _624  and  _625
REMARK  245  A    between atoms: _625  and  _626
REMARK  246  A    between atoms: _631  and  _633
REMARK  247  A    between atoms: _633  and  _634
REMARK  248  A    between atoms: _633  and  _636
REMARK  249  A    between atoms: _636  and  _637
REMARK  250  A    between atoms: _640  and  _642
REMARK  251  A    between atoms: _642  and  _643
REMARK  252  A    between atoms: _642  and  _645
REMARK  253  A    between atoms: _645  and  _646
REMARK  254  A    between atoms: _649  and  _651
REMARK  255  A    between atoms: _651  and  _652
REMARK  256  A    between atoms: _651  and  _654
REMARK  257  A    between atoms: _654  and  _655
REMARK  258  A    between atoms: _655  and  _656
REMARK  259  A    between atoms: _661  and  _663
REMARK  260  A    between atoms: _663  and  _664
REMARK  261  A    between atoms: _663  and  _666
REMARK  262  A    between atoms: _666  and  _667
REMARK  263  A    between atoms: _667  and  _668
REMARK  264  A    between atoms: _668  and  _669
REMARK  265  A    between atoms: _678  and  _680
REMARK  266  A    between atoms: _680  and  _681
REMARK  267  A    between atoms: _680  and  _683
REMARK  268  A    between atoms: _683  and  _684
REMARK  269  A    between atoms: _684  and  _685
REMARK  270  A    between atoms: _685  and  _686
REMARK  271  A    between atoms: _686  and  _687
REMARK  272  A    between atoms: _691  and  _693
REMARK  273  A    between atoms: _693  and  _694
REMARK  274  A    between atoms: _693  and  _696
REMARK  275  A    between atoms: _696  and  _697
REMARK  276  A    between atoms: _707  and  _709
REMARK  277  A    between atoms: _709  and  _710
REMARK  278  A    between atoms: _713  and  _715
REMARK  279  A    between atoms: _715  and  _716
REMARK  280  A    between atoms: _719  and  _721
REMARK  281  A    between atoms: _721  and  _722
REMARK  282  A    between atoms: _721  and  _724
REMARK  283  A    between atoms: _724  and  _725
REMARK  284  A    between atoms: _725  and  _726
REMARK  285  A    between atoms: _726  and  _727
REMARK  286  A    between atoms: _736  and  _738
REMARK  287  A    between atoms: _738  and  _739
REMARK  288  A    between atoms: _738  and  _741
REMARK  289  A    between atoms: _744  and  _746
REMARK  290  A    between atoms: _746  and  _747
REMARK  291  A    between atoms: _750  and  _752
REMARK  292  A    between atoms: _752  and  _753
REMARK  293  A    between atoms: _752  and  _755
REMARK  294  A    between atoms: _755  and  _756
REMARK  295  A    between atoms: _756  and  _757
REMARK  296  A    between atoms: _760  and  _762
REMARK  297  A    between atoms: _762  and  _763
REMARK  298  A    between atoms: _762  and  _765
REMARK  299  A    between atoms: _765  and  _766
REMARK  300  A    between atoms: _766  and  _767
REMARK  301  A    between atoms: _772  and  _774
REMARK  302  A    between atoms: _774  and  _775
REMARK  303  A    between atoms: _774  and  _777
REMARK  304  A    between atoms: _777  and  _778
REMARK  305  A    between atoms: _781  and  _783
REMARK  306  A    between atoms: _783  and  _784
REMARK  307  A    between atoms: _783  and  _786
REMARK  308  A    between atoms: _786  and  _787
REMARK  309  A    between atoms: _787  and  _788
REMARK  310  A    between atoms: _788  and  _789
REMARK  311  A    between atoms: _798  and  _800
REMARK  312  A    between atoms: _800  and  _801
REMARK  313  A    between atoms: _800  and  _803
REMARK  314  A    between atoms: _803  and  _804
REMARK  315  A    between atoms: _807  and  _809
REMARK  316  A    between atoms: _809  and  _810
REMARK  317  A    between atoms: _809  and  _812
REMARK  318  A    between atoms: _812  and  _813
REMARK  319  A    between atoms: _818  and  _819
REMARK  320  A    between atoms: _821  and  _823
REMARK  321  A    between atoms: _823  and  _824
REMARK  322  A    between atoms: _823  and  _826
REMARK  323  A    between atoms: _826  and  _827
REMARK  324  A    between atoms: _830  and  _832
REMARK  325  A    between atoms: _832  and  _833
REMARK  326  A    between atoms: _832  and  _835
REMARK  327  A    between atoms: _835  and  _836
REMARK  328  A    between atoms: _839  and  _841
REMARK  329  A    between atoms: _841  and  _842
REMARK  330  A    between atoms: _841  and  _844
REMARK  331  A    between atoms: _846  and  _848
REMARK  332  A    between atoms: _848  and  _849
REMARK  333  A    between atoms: _848  and  _851
REMARK  334  A    between atoms: _854  and  _856
REMARK  335  A    between atoms: _856  and  _857
REMARK  336  A    between atoms: _856  and  _859
REMARK  337  A    between atoms: _859  and  _860
REMARK  338  A    between atoms: _860  and  _861
REMARK  339  A    between atoms: _864  and  _866
REMARK  340  A    between atoms: _866  and  _867
REMARK  341  A    between atoms: _866  and  _869
REMARK  342  A    between atoms: _869  and  _870
REMARK  343  A    between atoms: _880  and  _882
REMARK  344  A    between atoms: _882  and  _883
REMARK  345  A    between atoms: _882  and  _885
REMARK  346  A    between atoms: _885  and  _886
REMARK  347  A    between atoms: _889  and  _891
REMARK  348  A    between atoms: _891  and  _892
REMARK  349  A    between atoms: _891  and  _894
REMARK  350  A    between atoms: _894  and  _895
REMARK  351  A    between atoms: _900  and  _901
REMARK                            x       y       z     vdW  Elec       q    Type
REMARK                         _______ _______ _______ _____ _____    ______ ____
ROOT
ATOM      1  O   HOH     1      -0.412  10.630  32.018  0.00  0.00    +0.000 OA
ENDROOT
TORSDOF 0
REMARK  Name = ../refined-set-2016/4o2c/4o2c_pocket.pdb
REMARK  351 active torsions:
REMARK  status: ('A' for Active; 'I' for Inactive)
REMARK    1  A    between atoms: _1  and  _3
REMARK    2  A    between atoms: _3  and  _4
REMARK    3  A    between atoms: _3  and  _6
REMARK    4  A    between atoms: _6  and  _7
REMARK    5  A    between atoms: _7  and  _8
REMARK    6  A    between atoms: _10  and  _12
REMARK    7  A    between atoms: _12  and  _13
REMARK    8  A    between atoms: _12  and  _15
REMARK    9  A    between atoms: _15  and  _16
REMARK   10  A    between atoms: _16  and  _17
REMARK   11  A    between atoms: _17  and  _18
REMARK   12  A    between atoms: _27  and  _29
REMARK   13  A    between atoms: _29  and  _30
REMARK   14  A    between atoms: _29  and  _32
REMARK   15  A    between atoms: _32  and  _33
REMARK   16  A    between atoms: _38  and  _39
REMARK   17  A    between atoms: _41  and  _43
REMARK   18  A    between atoms: _43  and  _44
REMARK   19  A    between atoms: _43  and  _46
REMARK   20  A    between atoms: _46  and  _47
REMARK   21  A    between atoms: _53  and  _55
REMARK   22  A    between atoms: _55  and  _56
REMARK   23  A    between atoms: _55  and  _58
REMARK   24  A    between atoms: _58  and  _59
REMARK   25  A    between atoms: _64  and  _65
REMARK   26  A    between atoms: _67  and  _69
REMARK   27  A    between atoms: _69  and  _70
REMARK   28  A    between atoms: _69  and  _72
REMARK   29  A    between atoms: _72  and  _73
REMARK   30  A    between atoms: _79  and  _81
REMARK   31  A    between atoms: _81  and  _82
REMARK   32  A    between atoms: _81  and  _84
REMARK   33  A    between atoms: _84  and  _85
REMARK   34  A    between atoms: _88  and  _90
REMARK   35  A    between atoms: _90  and  _91
REMARK   36  A    between atoms: _90  and  _93
REMARK   37  A    between atoms: _93  and  _94
REMARK   38  A    between atoms: _96  and  _98
REMARK   39  A    between atoms: _98  and  _99
REMARK   40  A    between atoms: _98  and  _101
REMARK   41  A    between atoms: _104  and  _106
REMARK   42  A    between atoms: _106  and  _107
REMARK   43  A    between atoms: _109  and  _111
REMARK   44  A    between atoms: _111  and  _112
REMARK   45  A    between atoms: _111  and  _114
REMARK   46  A    between atoms: _114  and  _115
REMARK   47  A    between atoms: _121  and  _123
REMARK   48  A    between atoms: _123  and  _124
REMARK   49  A    between atoms: _123  and  _126
REMARK   50  A    between atoms: _129  and  _131
REMARK   51  A    between atoms: _131  and  _132
REMARK   52  A    between atoms: _131  and  _134
REMARK   53  A    between atoms: _134  and  _135
REMARK   54  A    between atoms: _135  and  _136
REMARK   55  A    between atoms: _136  and  _137
REMARK   56  A    between atoms: _146  and  _148
REMARK   57  A    between atoms: _148  and  _149
REMARK   58  A    between atoms: _148  and  _151
REMARK   59  A    between atoms: _151  and  _152
REMARK   60  A    between atoms: _158  and  _160
REMARK   61  A    between atoms: _160  and  _161
REMARK   62  A    between atoms: _160  and  _163
REMARK   63  A    between atoms: _163  and  _164
REMARK   64  A    between atoms: _164  and  _165
REMARK   65  A    between atoms: _168  and  _170
REMARK   66  A    between atoms: _170  and  _171
REMARK   67  A    between atoms: _170  and  _173
REMARK   68  A    between atoms: _173  and  _174
REMARK   69  A    between atoms: _174  and  _175
REMARK   70  A    between atoms: _178  and  _180
REMARK   71  A    between atoms: _180  and  _181
REMARK   72  A    between atoms: _180  and  _183
REMARK   73  A    between atoms: _183  and  _184
REMARK   74  A    between atoms: _187  and  _189
REMARK   75  A    between atoms: _189  and  _190
REMARK   76  A    between atoms: _189  and  _192
REMARK   77  A    between atoms: _192  and  _193
REMARK   78  A    between atoms: _193  and  _194
REMARK   79  A    between atoms: _197  and  _199
REMARK   80  A    between atoms: _199  and  _200
REMARK   81  A    between atoms: _199  and  _202
REMARK   82  A    between atoms: _202  and  _203
REMARK   83  A    between atoms: _203  and  _204
REMARK   84  A    between atoms: _207  and  _209
REMARK   85  A    between atoms: _209  and  _210
REMARK   86  A    between atoms: _209  and  _212
REMARK   87  A    between atoms: _212  and  _213
REMARK   88  A    between atoms: _218  and  _219
REMARK   89  A    between atoms: _221  and  _223
REMARK   90  A    between atoms: _223  and  _224
REMARK   91  A    between atoms: _223  and  _226
REMARK   92  A    between atoms: _226  and  _227
REMARK   93  A    between atoms: _237  and  _239
REMARK   94  A    between atoms: _239  and  _240
REMARK   95  A    between atoms: _239  and  _242
REMARK   96  A    between atoms: _242  and  _243
REMARK   97  A    between atoms: _246  and  _248
REMARK   98  A    between atoms: _248  and  _249
REMARK   99  A    between atoms: _248  and  _251
REMARK  100  A    between atoms: _251  and  _252
REMARK  101  A    between atoms: _252  and  _253
REMARK  102  A    between atoms: _253  and  _254
REMARK  103  A    between atoms: _263  and  _265
REMARK  104  A    between atoms: _265  and  _266
REMARK  105  A    between atoms: _265  and  _268
REMARK  106  A    between atoms: _268  and  _269
REMARK  107  A    between atoms: _274  and  _276
REMARK  108  A    between atoms: _276  and  _277
REMARK  109  A    between atoms: _276  and  _279
REMARK  110  A    between atoms: _279  and  _280
REMARK  111  A    between atoms: _283  and  _285
REMARK  112  A    between atoms: _285  and  _286
REMARK  113  A    between atoms: _285  and  _288
REMARK  114  A    between atoms: _288  and  _289
REMARK  115  A    between atoms: _289  and  _290
REMARK  116  A    between atoms: _295  and  _297
REMARK  117  A    between atoms: _297  and  _298
REMARK  118  A    between atoms: _297  and  _300
REMARK  119  A    between atoms: _300  and  _301
REMARK  120  A    between atoms: _304  and  _306
REMARK  121  A    between atoms: _306  and  _307
REMARK  122  A    between atoms: _306  and  _309
REMARK  123  A    between atoms: _311  and  _313
REMARK  124  A    between atoms: _313  and  _314
REMARK  125  A    between atoms: _313  and  _316
REMARK  126  A    between atoms: _316  and  _317
REMARK  127  A    between atoms: _320  and  _322
REMARK  128  A    between atoms: _322  and  _323
REMARK  129  A    between atoms: _322  and  _325
REMARK  130  A    between atoms: _325  and  _326
REMARK  131  A    between atoms: _331  and  _333
REMARK  132  A    between atoms: _333  and  _334
REMARK  133  A    between atoms: _333  and  _336
REMARK  134  A    between atoms: _336  and  _337
REMARK  135  A    between atoms: _337  and  _338
REMARK  136  A    between atoms: _343  and  _345
REMARK  137  A    between atoms: _345  and  _346
REMARK  138  A    between atoms: _345  and  _348
REMARK  139  A    between atoms: _348  and  _349
REMARK  140  A    between atoms: _352  and  _354
REMARK  141  A    between atoms: _354  and  _355
REMARK  142  A    between atoms: _354  and  _357
REMARK  143  A    between atoms: _357  and  _358
REMARK  144  A    between atoms: _361  and  _363
REMARK  145  A    between atoms: _363  and  _364
REMARK  146  A    between atoms: _363  and  _366
REMARK  147  A    between atoms: _366  and  _367
REMARK  148  A    between atoms: _367  and  _368
REMARK  149  A    between atoms: _368  and  _369
REMARK  150  A    between atoms: _378  and  _380
REMARK  151  A    between atoms: _380  and  _381
REMARK  152  A    between atoms: _380  and  _383
REMARK  153  A    between atoms: _383  and  _384
REMARK  154  A    between atoms: _384  and  _385
REMARK  155  A    between atoms: _388  and  _390
REMARK  156  A    between atoms: _390  and  _391
REMARK  157  A    between atoms: _390  and  _393
REMARK  158  A    between atoms: _393  and  _394
REMARK  159  A    between atoms: _396  and  _398
REMARK  160  A    between atoms: _398  and  _399
REMARK  161  A    between atoms: _398  and  _401
REMARK  162  A    between atoms: _401  and  _402
REMARK  163  A    between atoms: _405  and  _407
REMARK  164  A    between atoms: _407  and  _408
REMARK  165  A    between atoms: _407  and  _410
REMARK  166  A    between atoms: _410  and  _411
REMARK  167  A    between atoms: _411  and  _412
REMARK  168  A    between atoms: _412  and  _413
REMARK  169  A    between atoms: _422  and  _424
REMARK  170  A    between atoms: _424  and  _425
REMARK  171  A    between atoms: _424  and  _427
REMARK  172  A    between atoms: _427  and  _428
REMARK  173  A    between atoms: _433  and  _435
REMARK  174  A    between atoms: _435  and  _436
REMARK  175  A    between atoms: _435  and  _438
REMARK  176  A    between atoms: _438  and  _439
REMARK  177  A    between atoms: _442  and  _444
REMARK  178  A    between atoms: _444  and  _445
REMARK  179  A    between atoms: _444  and  _447
REMARK  180  A    between atoms: _447  and  _448
REMARK  181  A    between atoms: _453  and  _454
REMARK  182  A    between atoms: _456  and  _458
REMARK  183  A    between atoms: _458  and  _459
REMARK  184  A    between atoms: _458  and  _461
REMARK  185  A    between atoms: _461  and  _462
REMARK  186  A    between atoms: _465  and  _467
REMARK  187  A    between atoms: _467  and  _468
REMARK  188  A    between atoms: _467  and  _470
REMARK  189  A    between atoms: _470  and  _471
REMARK  190  A    between atoms: _471  and  _472
REMARK  191  A    between atoms: _477  and  _479
REMARK  192  A    between atoms: _479  and  _480
REMARK  193  A    between atoms: _479  and  _482
REMARK  194  A    between atoms: _482  and  _483
REMARK  195  A    between atoms: _483  and  _484
REMARK  196  A    between atoms: _484  and  _485
REMARK  197  A    between atoms: _494  and  _496
REMARK  198  A    between atoms: _496  and  _497
REMARK  199  A    between atoms: _496  and  _499
REMARK  200  A    between atoms: _499  and  _500
REMARK  201  A    between atoms: _505  and  _506
REMARK  202  A    between atoms: _508  and  _510
REMARK  203  A    between atoms: _510  and  _511
REMARK  204  A    between atoms: _513  and  _515
REMARK  205  A    between atoms: _515  and  _516
REMARK  206  A    between atoms: _515  and  _518
REMARK  207  A    between atoms: _518  and  _519
REMARK  208  A    between atoms: _524  and  _526
REMARK  209  A    between atoms: _526  and  _527
REMARK  210  A    between atoms: _526  and  _529
REMARK  211  A    between atoms: _529  and  _530
REMARK  212  A    between atoms: _530  and  _531
REMARK  213  A    between atoms: _536  and  _538
REMARK  214  A    between atoms: _538  and  _539
REMARK  215  A    between atoms: _538  and  _541
REMARK  216  A    between atoms: _541  and  _542
REMARK  217  A    between atoms: _548  and  _550
REMARK  218  A    between atoms: _550  and  _551
REMARK  219  A    between atoms: _554  and  _556
REMARK  220  A    between atoms: _556  and  _557
REMARK  221  A    between atoms: _556  and  _559
REMARK  222  A    between atoms: _559  and  _560
REMARK  223  A    between atoms: _565  and  _566
REMARK  224  A    between atoms: _568  and  _570
REMARK  225  A    between atoms: _570  and  _571
REMARK  226  A    between atoms: _570  and  _573
REMARK  227  A    between atoms: _573  and  _574
REMARK  228  A    between atoms: _579  and  _580
REMARK  229  A    between atoms: _582  and  _584
REMARK  230  A    between atoms: _584  and  _585
REMARK  231  A    between atoms: _584  and  _587
REMARK  232  A    between atoms: _587  and  _588
REMARK  233  A    between atoms: _591  and  _593
REMARK  234  A    between atoms: _593  and  _594
REMARK  235  A    between atoms: _593  and  _596
REMARK  236  A    between atoms: _596  and  _597
REMARK  237  A    between atoms: _607  and  _609
REMARK  238  A    between atoms: _609  and  _610
REMARK  239  A    between atoms: _613  and  _615
REMARK  240  A    between atoms: _615  and  _616
REMARK  241  A    between atoms: _619  and  _621
REMARK  242  A    between atoms: _621  and  _622
REMARK  243  A    between atoms: _621  and  _624
REMARK  244  A    between atoms: _624  and  _625
REMARK  245  A    between atoms: _625  and  _626
REMARK  246  A    between atoms: _631  and  _633
REMARK  247  A    between atoms: _633  and  _634
REMARK  248  A    between atoms: _633  and  _636
REMARK  249  A    between atoms: _636  and  _637
REMARK  250  A    between atoms: _640  and  _642
REMARK  251  A    between atoms: _642  and  _643
REMARK  252  A    between atoms: _642  and  _645
REMARK  253  A    between atoms: _645  and  _646
REMARK  254  A    between atoms: _649  and  _651
REMARK  255  A    between atoms: _651  and  _652
REMARK  256  A    between atoms: _651  and  _654
REMARK  257  A    between atoms: _654  and  _655
REMARK  258  A    between atoms: _655  and  _656
REMARK  259  A    between atoms: _661  and  _663
REMARK  260  A    between atoms: _663  and  _664
REMARK  261  A    between atoms: _663  and  _666
REMARK  262  A    between atoms: _666  and  _667
REMARK  263  A    between atoms: _667  and  _668
REMARK  264  A    between atoms: _668  and  _669
REMARK  265  A    between atoms: _678  and  _680
REMARK  266  A    between atoms: _680  and  _681
REMARK  267  A    between atoms: _680  and  _683
REMARK  268  A    between atoms: _683  and  _684
REMARK  269  A    between atoms: _684  and  _685
REMARK  270  A    between atoms: _685  and  _686
REMARK  271  A    between atoms: _686  and  _687
REMARK  272  A    between atoms: _691  and  _693
REMARK  273  A    between atoms: _693  and  _694
REMARK  274  A    between atoms: _693  and  _696
REMARK  275  A    between atoms: _696  and  _697
REMARK  276  A    between atoms: _707  and  _709
REMARK  277  A    between atoms: _709  and  _710
REMARK  278  A    between atoms: _713  and  _715
REMARK  279  A    between atoms: _715  and  _716
REMARK  280  A    between atoms: _719  and  _721
REMARK  281  A    between atoms: _721  and  _722
REMARK  282  A    between atoms: _721  and  _724
REMARK  283  A    between atoms: _724  and  _725
REMARK  284  A    between atoms: _725  and  _726
REMARK  285  A    between atoms: _726  and  _727
REMARK  286  A    between atoms: _736  and  _738
REMARK  287  A    between atoms: _738  and  _739
REMARK  288  A    between atoms: _738  and  _741
REMARK  289  A    between atoms: _744  and  _746
REMARK  290  A    between atoms: _746  and  _747
REMARK  291  A    between atoms: _750  and  _752
REMARK  292  A    between atoms: _752  and  _753
REMARK  293  A    between atoms: _752  and  _755
REMARK  294  A    between atoms: _755  and  _756
REMARK  295  A    between atoms: _756  and  _757
REMARK  296  A    between atoms: _760  and  _762
REMARK  297  A    between atoms: _762  and  _763
REMARK  298  A    between atoms: _762  and  _765
REMARK  299  A    between atoms: _765  and  _766
REMARK  300  A    between atoms: _766  and  _767
REMARK  301  A    between atoms: _772  and  _774
REMARK  302  A    between atoms: _774  and  _775
REMARK  303  A    between atoms: _774  and  _777
REMARK  304  A    between atoms: _777  and  _778
REMARK  305  A    between atoms: _781  and  _783
REMARK  306  A    between atoms: _783  and  _784
REMARK  307  A    between atoms: _783  and  _786
REMARK  308  A    between atoms: _786  and  _787
REMARK  309  A    between atoms: _787  and  _788
REMARK  310  A    between atoms: _788  and  _789
REMARK  311  A    between atoms: _798  and  _800
REMARK  312  A    between atoms: _800  and  _801
REMARK  313  A    between atoms: _800  and  _803
REMARK  314  A    between atoms: _803  and  _804
REMARK  315  A    between atoms: _807  and  _809
REMARK  316  A    between atoms: _809  and  _810
REMARK  317  A    between atoms: _809  and  _812
REMARK  318  A    between atoms: _812  and  _813
REMARK  319  A    between atoms: _818  and  _819
REMARK  320  A    between atoms: _821  and  _823
REMARK  321  A    between atoms: _823  and  _824
REMARK  322  A    between atoms: _823  and  _826
REMARK  323  A    between atoms: _826  and  _827
REMARK  324  A    between atoms: _830  and  _832
REMARK  325  A    between atoms: _832  and  _833
REMARK  326  A    between atoms: _832  and  _835
REMARK  327  A    between atoms: _835  and  _836
REMARK  328  A    between atoms: _839  and  _841
REMARK  329  A    between atoms: _841  and  _842
REMARK  330  A    between atoms: _841  and  _844
REMARK  331  A    between atoms: _846  and  _848
REMARK  332  A    between atoms: _848  and  _849
REMARK  333  A    between atoms: _848  and  _851
REMARK  334  A    between atoms: _854  and  _856
REMARK  335  A    between atoms: _856  and  _857
REMARK  336  A    between atoms: _856  and  _859
REMARK  337  A    between atoms: _859  and  _860
REMARK  338  A    between atoms: _860  and  _861
REMARK  339  A    between atoms: _864  and  _866
REMARK  340  A    between atoms: _866  and  _867
REMARK  341  A    between atoms: _866  and  _869
REMARK  342  A    between atoms: _869  and  _870
REMARK  343  A    between atoms: _880  and  _882
REMARK  344  A    between atoms: _882  and  _883
REMARK  345  A    between atoms: _882  and  _885
REMARK  346  A    between atoms: _885  and  _886
REMARK  347  A    between atoms: _889  and  _891
REMARK  348  A    between atoms: _891  and  _892
REMARK  349  A    between atoms: _891  and  _894
REMARK  350  A    between atoms: _894  and  _895
REMARK  351  A    between atoms: _900  and  _901
REMARK                            x       y       z     vdW  Elec       q    Type
REMARK                         _______ _______ _______ _____ _____    ______ ____
ROOT
ATOM      1  O   HOH     1      -1.197   9.665  29.485  0.00  0.00    +0.000 OA
ENDROOT
TORSDOF 0
REMARK  Name = ../refined-set-2016/4o2c/4o2c_pocket.pdb
REMARK  351 active torsions:
REMARK  status: ('A' for Active; 'I' for Inactive)
REMARK    1  A    between atoms: _1  and  _3
REMARK    2  A    between atoms: _3  and  _4
REMARK    3  A    between atoms: _3  and  _6
REMARK    4  A    between atoms: _6  and  _7
REMARK    5  A    between atoms: _7  and  _8
REMARK    6  A    between atoms: _10  and  _12
REMARK    7  A    between atoms: _12  and  _13
REMARK    8  A    between atoms: _12  and  _15
REMARK    9  A    between atoms: _15  and  _16
REMARK   10  A    between atoms: _16  and  _17
REMARK   11  A    between atoms: _17  and  _18
REMARK   12  A    between atoms: _27  and  _29
REMARK   13  A    between atoms: _29  and  _30
REMARK   14  A    between atoms: _29  and  _32
REMARK   15  A    between atoms: _32  and  _33
REMARK   16  A    between atoms: _38  and  _39
REMARK   17  A    between atoms: _41  and  _43
REMARK   18  A    between atoms: _43  and  _44
REMARK   19  A    between atoms: _43  and  _46
REMARK   20  A    between atoms: _46  and  _47
REMARK   21  A    between atoms: _53  and  _55
REMARK   22  A    between atoms: _55  and  _56
REMARK   23  A    between atoms: _55  and  _58
REMARK   24  A    between atoms: _58  and  _59
REMARK   25  A    between atoms: _64  and  _65
REMARK   26  A    between atoms: _67  and  _69
REMARK   27  A    between atoms: _69  and  _70
REMARK   28  A    between atoms: _69  and  _72
REMARK   29  A    between atoms: _72  and  _73
REMARK   30  A    between atoms: _79  and  _81
REMARK   31  A    between atoms: _81  and  _82
REMARK   32  A    between atoms: _81  and  _84
REMARK   33  A    between atoms: _84  and  _85
REMARK   34  A    between atoms: _88  and  _90
REMARK   35  A    between atoms: _90  and  _91
REMARK   36  A    between atoms: _90  and  _93
REMARK   37  A    between atoms: _93  and  _94
REMARK   38  A    between atoms: _96  and  _98
REMARK   39  A    between atoms: _98  and  _99
REMARK   40  A    between atoms: _98  and  _101
REMARK   41  A    between atoms: _104  and  _106
REMARK   42  A    between atoms: _106  and  _107
REMARK   43  A    between atoms: _109  and  _111
REMARK   44  A    between atoms: _111  and  _112
REMARK   45  A    between atoms: _111  and  _114
REMARK   46  A    between atoms: _114  and  _115
REMARK   47  A    between atoms: _121  and  _123
REMARK   48  A    between atoms: _123  and  _124
REMARK   49  A    between atoms: _123  and  _126
REMARK   50  A    between atoms: _129  and  _131
REMARK   51  A    between atoms: _131  and  _132
REMARK   52  A    between atoms: _131  and  _134
REMARK   53  A    between atoms: _134  and  _135
REMARK   54  A    between atoms: _135  and  _136
REMARK   55  A    between atoms: _136  and  _137
REMARK   56  A    between atoms: _146  and  _148
REMARK   57  A    between atoms: _148  and  _149
REMARK   58  A    between atoms: _148  and  _151
REMARK   59  A    between atoms: _151  and  _152
REMARK   60  A    between atoms: _158  and  _160
REMARK   61  A    between atoms: _160  and  _161
REMARK   62  A    between atoms: _160  and  _163
REMARK   63  A    between atoms: _163  and  _164
REMARK   64  A    between atoms: _164  and  _165
REMARK   65  A    between atoms: _168  and  _170
REMARK   66  A    between atoms: _170  and  _171
REMARK   67  A    between atoms: _170  and  _173
REMARK   68  A    between atoms: _173  and  _174
REMARK   69  A    between atoms: _174  and  _175
REMARK   70  A    between atoms: _178  and  _180
REMARK   71  A    between atoms: _180  and  _181
REMARK   72  A    between atoms: _180  and  _183
REMARK   73  A    between atoms: _183  and  _184
REMARK   74  A    between atoms: _187  and  _189
REMARK   75  A    between atoms: _189  and  _190
REMARK   76  A    between atoms: _189  and  _192
REMARK   77  A    between atoms: _192  and  _193
REMARK   78  A    between atoms: _193  and  _194
REMARK   79  A    between atoms: _197  and  _199
REMARK   80  A    between atoms: _199  and  _200
REMARK   81  A    between atoms: _199  and  _202
REMARK   82  A    between atoms: _202  and  _203
REMARK   83  A    between atoms: _203  and  _204
REMARK   84  A    between atoms: _207  and  _209
REMARK   85  A    between atoms: _209  and  _210
REMARK   86  A    between atoms: _209  and  _212
REMARK   87  A    between atoms: _212  and  _213
REMARK   88  A    between atoms: _218  and  _219
REMARK   89  A    between atoms: _221  and  _223
REMARK   90  A    between atoms: _223  and  _224
REMARK   91  A    between atoms: _223  and  _226
REMARK   92  A    between atoms: _226  and  _227
REMARK   93  A    between atoms: _237  and  _239
REMARK   94  A    between atoms: _239  and  _240
REMARK   95  A    between atoms: _239  and  _242
REMARK   96  A    between atoms: _242  and  _243
REMARK   97  A    between atoms: _246  and  _248
REMARK   98  A    between atoms: _248  and  _249
REMARK   99  A    between atoms: _248  and  _251
REMARK  100  A    between atoms: _251  and  _252
REMARK  101  A    between atoms: _252  and  _253
REMARK  102  A    between atoms: _253  and  _254
REMARK  103  A    between atoms: _263  and  _265
REMARK  104  A    between atoms: _265  and  _266
REMARK  105  A    between atoms: _265  and  _268
REMARK  106  A    between atoms: _268  and  _269
REMARK  107  A    between atoms: _274  and  _276
REMARK  108  A    between atoms: _276  and  _277
REMARK  109  A    between atoms: _276  and  _279
REMARK  110  A    between atoms: _279  and  _280
REMARK  111  A    between atoms: _283  and  _285
REMARK  112  A    between atoms: _285  and  _286
REMARK  113  A    between atoms: _285  and  _288
REMARK  114  A    between atoms: _288  and  _289
REMARK  115  A    between atoms: _289  and  _290
REMARK  116  A    between atoms: _295  and  _297
REMARK  117  A    between atoms: _297  and  _298
REMARK  118  A    between atoms: _297  and  _300
REMARK  119  A    between atoms: _300  and  _301
REMARK  120  A    between atoms: _304  and  _306
REMARK  121  A    between atoms: _306  and  _307
REMARK  122  A    between atoms: _306  and  _309
REMARK  123  A    between atoms: _311  and  _313
REMARK  124  A    between atoms: _313  and  _314
REMARK  125  A    between atoms: _313  and  _316
REMARK  126  A    between atoms: _316  and  _317
REMARK  127  A    between atoms: _320  and  _322
REMARK  128  A    between atoms: _322  and  _323
REMARK  129  A    between atoms: _322  and  _325
REMARK  130  A    between atoms: _325  and  _326
REMARK  131  A    between atoms: _331  and  _333
REMARK  132  A    between atoms: _333  and  _334
REMARK  133  A    between atoms: _333  and  _336
REMARK  134  A    between atoms: _336  and  _337
REMARK  135  A    between atoms: _337  and  _338
REMARK  136  A    between atoms: _343  and  _345
REMARK  137  A    between atoms: _345  and  _346
REMARK  138  A    between atoms: _345  and  _348
REMARK  139  A    between atoms: _348  and  _349
REMARK  140  A    between atoms: _352  and  _354
REMARK  141  A    between atoms: _354  and  _355
REMARK  142  A    between atoms: _354  and  _357
REMARK  143  A    between atoms: _357  and  _358
REMARK  144  A    between atoms: _361  and  _363
REMARK  145  A    between atoms: _363  and  _364
REMARK  146  A    between atoms: _363  and  _366
REMARK  147  A    between atoms: _366  and  _367
REMARK  148  A    between atoms: _367  and  _368
REMARK  149  A    between atoms: _368  and  _369
REMARK  150  A    between atoms: _378  and  _380
REMARK  151  A    between atoms: _380  and  _381
REMARK  152  A    between atoms: _380  and  _383
REMARK  153  A    between atoms: _383  and  _384
REMARK  154  A    between atoms: _384  and  _385
REMARK  155  A    between atoms: _388  and  _390
REMARK  156  A    between atoms: _390  and  _391
REMARK  157  A    between atoms: _390  and  _393
REMARK  158  A    between atoms: _393  and  _394
REMARK  159  A    between atoms: _396  and  _398
REMARK  160  A    between atoms: _398  and  _399
REMARK  161  A    between atoms: _398  and  _401
REMARK  162  A    between atoms: _401  and  _402
REMARK  163  A    between atoms: _405  and  _407
REMARK  164  A    between atoms: _407  and  _408
REMARK  165  A    between atoms: _407  and  _410
REMARK  166  A    between atoms: _410  and  _411
REMARK  167  A    between atoms: _411  and  _412
REMARK  168  A    between atoms: _412  and  _413
REMARK  169  A    between atoms: _422  and  _424
REMARK  170  A    between atoms: _424  and  _425
REMARK  171  A    between atoms: _424  and  _427
REMARK  172  A    between atoms: _427  and  _428
REMARK  173  A    between atoms: _433  and  _435
REMARK  174  A    between atoms: _435  and  _436
REMARK  175  A    between atoms: _435  and  _438
REMARK  176  A    between atoms: _438  and  _439
REMARK  177  A    between atoms: _442  and  _444
REMARK  178  A    between atoms: _444  and  _445
REMARK  179  A    between atoms: _444  and  _447
REMARK  180  A    between atoms: _447  and  _448
REMARK  181  A    between atoms: _453  and  _454
REMARK  182  A    between atoms: _456  and  _458
REMARK  183  A    between atoms: _458  and  _459
REMARK  184  A    between atoms: _458  and  _461
REMARK  185  A    between atoms: _461  and  _462
REMARK  186  A    between atoms: _465  and  _467
REMARK  187  A    between atoms: _467  and  _468
REMARK  188  A    between atoms: _467  and  _470
REMARK  189  A    between atoms: _470  and  _471
REMARK  190  A    between atoms: _471  and  _472
REMARK  191  A    between atoms: _477  and  _479
REMARK  192  A    between atoms: _479  and  _480
REMARK  193  A    between atoms: _479  and  _482
REMARK  194  A    between atoms: _482  and  _483
REMARK  195  A    between atoms: _483  and  _484
REMARK  196  A    between atoms: _484  and  _485
REMARK  197  A    between atoms: _494  and  _496
REMARK  198  A    between atoms: _496  and  _497
REMARK  199  A    between atoms: _496  and  _499
REMARK  200  A    between atoms: _499  and  _500
REMARK  201  A    between atoms: _505  and  _506
REMARK  202  A    between atoms: _508  and  _510
REMARK  203  A    between atoms: _510  and  _511
REMARK  204  A    between atoms: _513  and  _515
REMARK  205  A    between atoms: _515  and  _516
REMARK  206  A    between atoms: _515  and  _518
REMARK  207  A    between atoms: _518  and  _519
REMARK  208  A    between atoms: _524  and  _526
REMARK  209  A    between atoms: _526  and  _527
REMARK  210  A    between atoms: _526  and  _529
REMARK  211  A    between atoms: _529  and  _530
REMARK  212  A    between atoms: _530  and  _531
REMARK  213  A    between atoms: _536  and  _538
REMARK  214  A    between atoms: _538  and  _539
REMARK  215  A    between atoms: _538  and  _541
REMARK  216  A    between atoms: _541  and  _542
REMARK  217  A    between atoms: _548  and  _550
REMARK  218  A    between atoms: _550  and  _551
REMARK  219  A    between atoms: _554  and  _556
REMARK  220  A    between atoms: _556  and  _557
REMARK  221  A    between atoms: _556  and  _559
REMARK  222  A    between atoms: _559  and  _560
REMARK  223  A    between atoms: _565  and  _566
REMARK  224  A    between atoms: _568  and  _570
REMARK  225  A    between atoms: _570  and  _571
REMARK  226  A    between atoms: _570  and  _573
REMARK  227  A    between atoms: _573  and  _574
REMARK  228  A    between atoms: _579  and  _580
REMARK  229  A    between atoms: _582  and  _584
REMARK  230  A    between atoms: _584  and  _585
REMARK  231  A    between atoms: _584  and  _587
REMARK  232  A    between atoms: _587  and  _588
REMARK  233  A    between atoms: _591  and  _593
REMARK  234  A    between atoms: _593  and  _594
REMARK  235  A    between atoms: _593  and  _596
REMARK  236  A    between atoms: _596  and  _597
REMARK  237  A    between atoms: _607  and  _609
REMARK  238  A    between atoms: _609  and  _610
REMARK  239  A    between atoms: _613  and  _615
REMARK  240  A    between atoms: _615  and  _616
REMARK  241  A    between atoms: _619  and  _621
REMARK  242  A    between atoms: _621  and  _622
REMARK  243  A    between atoms: _621  and  _624
REMARK  244  A    between atoms: _624  and  _625
REMARK  245  A    between atoms: _625  and  _626
REMARK  246  A    between atoms: _631  and  _633
REMARK  247  A    between atoms: _633  and  _634
REMARK  248  A    between atoms: _633  and  _636
REMARK  249  A    between atoms: _636  and  _637
REMARK  250  A    between atoms: _640  and  _642
REMARK  251  A    between atoms: _642  and  _643
REMARK  252  A    between atoms: _642  and  _645
REMARK  253  A    between atoms: _645  and  _646
REMARK  254  A    between atoms: _649  and  _651
REMARK  255  A    between atoms: _651  and  _652
REMARK  256  A    between atoms: _651  and  _654
REMARK  257  A    between atoms: _654  and  _655
REMARK  258  A    between atoms: _655  and  _656
REMARK  259  A    between atoms: _661  and  _663
REMARK  260  A    between atoms: _663  and  _664
REMARK  261  A    between atoms: _663  and  _666
REMARK  262  A    between atoms: _666  and  _667
REMARK  263  A    between atoms: _667  and  _668
REMARK  264  A    between atoms: _668  and  _669
REMARK  265  A    between atoms: _678  and  _680
REMARK  266  A    between atoms: _680  and  _681
REMARK  267  A    between atoms: _680  and  _683
REMARK  268  A    between atoms: _683  and  _684
REMARK  269  A    between atoms: _684  and  _685
REMARK  270  A    between atoms: _685  and  _686
REMARK  271  A    between atoms: _686  and  _687
REMARK  272  A    between atoms: _691  and  _693
REMARK  273  A    between atoms: _693  and  _694
REMARK  274  A    between atoms: _693  and  _696
REMARK  275  A    between atoms: _696  and  _697
REMARK  276  A    between atoms: _707  and  _709
REMARK  277  A    between atoms: _709  and  _710
REMARK  278  A    between atoms: _713  and  _715
REMARK  279  A    between atoms: _715  and  _716
REMARK  280  A    between atoms: _719  and  _721
REMARK  281  A    between atoms: _721  and  _722
REMARK  282  A    between atoms: _721  and  _724
REMARK  283  A    between atoms: _724  and  _725
REMARK  284  A    between atoms: _725  and  _726
REMARK  285  A    between atoms: _726  and  _727
REMARK  286  A    between atoms: _736  and  _738
REMARK  287  A    between atoms: _738  and  _739
REMARK  288  A    between atoms: _738  and  _741
REMARK  289  A    between atoms: _744  and  _746
REMARK  290  A    between atoms: _746  and  _747
REMARK  291  A    between atoms: _750  and  _752
REMARK  292  A    between atoms: _752  and  _753
REMARK  293  A    between atoms: _752  and  _755
REMARK  294  A    between atoms: _755  and  _756
REMARK  295  A    between atoms: _756  and  _757
REMARK  296  A    between atoms: _760  and  _762
REMARK  297  A    between atoms: _762  and  _763
REMARK  298  A    between atoms: _762  and  _765
REMARK  299  A    between atoms: _765  and  _766
REMARK  300  A    between atoms: _766  and  _767
REMARK  301  A    between atoms: _772  and  _774
REMARK  302  A    between atoms: _774  and  _775
REMARK  303  A    between atoms: _774  and  _777
REMARK  304  A    between atoms: _777  and  _778
REMARK  305  A    between atoms: _781  and  _783
REMARK  306  A    between atoms: _783  and  _784
REMARK  307  A    between atoms: _783  and  _786
REMARK  308  A    between atoms: _786  and  _787
REMARK  309  A    between atoms: _787  and  _788
REMARK  310  A    between atoms: _788  and  _789
REMARK  311  A    between atoms: _798  and  _800
REMARK  312  A    between atoms: _800  and  _801
REMARK  313  A    between atoms: _800  and  _803
REMARK  314  A    between atoms: _803  and  _804
REMARK  315  A    between atoms: _807  and  _809
REMARK  316  A    between atoms: _809  and  _810
REMARK  317  A    between atoms: _809  and  _812
REMARK  318  A    between atoms: _812  and  _813
REMARK  319  A    between atoms: _818  and  _819
REMARK  320  A    between atoms: _821  and  _823
REMARK  321  A    between atoms: _823  and  _824
REMARK  322  A    between atoms: _823  and  _826
REMARK  323  A    between atoms: _826  and  _827
REMARK  324  A    between atoms: _830  and  _832
REMARK  325  A    between atoms: _832  and  _833
REMARK  326  A    between atoms: _832  and  _835
REMARK  327  A    between atoms: _835  and  _836
REMARK  328  A    between atoms: _839  and  _841
REMARK  329  A    between atoms: _841  and  _842
REMARK  330  A    between atoms: _841  and  _844
REMARK  331  A    between atoms: _846  and  _848
REMARK  332  A    between atoms: _848  and  _849
REMARK  333  A    between atoms: _848  and  _851
REMARK  334  A    between atoms: _854  and  _856
REMARK  335  A    between atoms: _856  and  _857
REMARK  336  A    between atoms: _856  and  _859
REMARK  337  A    between atoms: _859  and  _860
REMARK  338  A    between atoms: _860  and  _861
REMARK  339  A    between atoms: _864  and  _866
REMARK  340  A    between atoms: _866  and  _867
REMARK  341  A    between atoms: _866  and  _869
REMARK  342  A    between atoms: _869  and  _870
REMARK  343  A    between atoms: _880  and  _882
REMARK  344  A    between atoms: _882  and  _883
REMARK  345  A    between atoms: _882  and  _885
REMARK  346  A    between atoms: _885  and  _886
REMARK  347  A    between atoms: _889  and  _891
REMARK  348  A    between atoms: _891  and  _892
REMARK  349  A    between atoms: _891  and  _894
REMARK  350  A    between atoms: _894  and  _895
REMARK  351  A    between atoms: _900  and  _901
REMARK                            x       y       z     vdW  Elec       q    Type
REMARK                         _______ _______ _______ _____ _____    ______ ____
ROOT
ATOM      1  O   HOH     1     -12.905   9.318  35.225  0.00  0.00    +0.000 OA
ENDROOT
TORSDOF 0
REMARK  Name = ../refined-set-2016/4o2c/4o2c_pocket.pdb
REMARK  351 active torsions:
REMARK  status: ('A' for Active; 'I' for Inactive)
REMARK    1  A    between atoms: _1  and  _3
REMARK    2  A    between atoms: _3  and  _4
REMARK    3  A    between atoms: _3  and  _6
REMARK    4  A    between atoms: _6  and  _7
REMARK    5  A    between atoms: _7  and  _8
REMARK    6  A    between atoms: _10  and  _12
REMARK    7  A    between atoms: _12  and  _13
REMARK    8  A    between atoms: _12  and  _15
REMARK    9  A    between atoms: _15  and  _16
REMARK   10  A    between atoms: _16  and  _17
REMARK   11  A    between atoms: _17  and  _18
REMARK   12  A    between atoms: _27  and  _29
REMARK   13  A    between atoms: _29  and  _30
REMARK   14  A    between atoms: _29  and  _32
REMARK   15  A    between atoms: _32  and  _33
REMARK   16  A    between atoms: _38  and  _39
REMARK   17  A    between atoms: _41  and  _43
REMARK   18  A    between atoms: _43  and  _44
REMARK   19  A    between atoms: _43  and  _46
REMARK   20  A    between atoms: _46  and  _47
REMARK   21  A    between atoms: _53  and  _55
REMARK   22  A    between atoms: _55  and  _56
REMARK   23  A    between atoms: _55  and  _58
REMARK   24  A    between atoms: _58  and  _59
REMARK   25  A    between atoms: _64  and  _65
REMARK   26  A    between atoms: _67  and  _69
REMARK   27  A    between atoms: _69  and  _70
REMARK   28  A    between atoms: _69  and  _72
REMARK   29  A    between atoms: _72  and  _73
REMARK   30  A    between atoms: _79  and  _81
REMARK   31  A    between atoms: _81  and  _82
REMARK   32  A    between atoms: _81  and  _84
REMARK   33  A    between atoms: _84  and  _85
REMARK   34  A    between atoms: _88  and  _90
REMARK   35  A    between atoms: _90  and  _91
REMARK   36  A    between atoms: _90  and  _93
REMARK   37  A    between atoms: _93  and  _94
REMARK   38  A    between atoms: _96  and  _98
REMARK   39  A    between atoms: _98  and  _99
REMARK   40  A    between atoms: _98  and  _101
REMARK   41  A    between atoms: _104  and  _106
REMARK   42  A    between atoms: _106  and  _107
REMARK   43  A    between atoms: _109  and  _111
REMARK   44  A    between atoms: _111  and  _112
REMARK   45  A    between atoms: _111  and  _114
REMARK   46  A    between atoms: _114  and  _115
REMARK   47  A    between atoms: _121  and  _123
REMARK   48  A    between atoms: _123  and  _124
REMARK   49  A    between atoms: _123  and  _126
REMARK   50  A    between atoms: _129  and  _131
REMARK   51  A    between atoms: _131  and  _132
REMARK   52  A    between atoms: _131  and  _134
REMARK   53  A    between atoms: _134  and  _135
REMARK   54  A    between atoms: _135  and  _136
REMARK   55  A    between atoms: _136  and  _137
REMARK   56  A    between atoms: _146  and  _148
REMARK   57  A    between atoms: _148  and  _149
REMARK   58  A    between atoms: _148  and  _151
REMARK   59  A    between atoms: _151  and  _152
REMARK   60  A    between atoms: _158  and  _160
REMARK   61  A    between atoms: _160  and  _161
REMARK   62  A    between atoms: _160  and  _163
REMARK   63  A    between atoms: _163  and  _164
REMARK   64  A    between atoms: _164  and  _165
REMARK   65  A    between atoms: _168  and  _170
REMARK   66  A    between atoms: _170  and  _171
REMARK   67  A    between atoms: _170  and  _173
REMARK   68  A    between atoms: _173  and  _174
REMARK   69  A    between atoms: _174  and  _175
REMARK   70  A    between atoms: _178  and  _180
REMARK   71  A    between atoms: _180  and  _181
REMARK   72  A    between atoms: _180  and  _183
REMARK   73  A    between atoms: _183  and  _184
REMARK   74  A    between atoms: _187  and  _189
REMARK   75  A    between atoms: _189  and  _190
REMARK   76  A    between atoms: _189  and  _192
REMARK   77  A    between atoms: _192  and  _193
REMARK   78  A    between atoms: _193  and  _194
REMARK   79  A    between atoms: _197  and  _199
REMARK   80  A    between atoms: _199  and  _200
REMARK   81  A    between atoms: _199  and  _202
REMARK   82  A    between atoms: _202  and  _203
REMARK   83  A    between atoms: _203  and  _204
REMARK   84  A    between atoms: _207  and  _209
REMARK   85  A    between atoms: _209  and  _210
REMARK   86  A    between atoms: _209  and  _212
REMARK   87  A    between atoms: _212  and  _213
REMARK   88  A    between atoms: _218  and  _219
REMARK   89  A    between atoms: _221  and  _223
REMARK   90  A    between atoms: _223  and  _224
REMARK   91  A    between atoms: _223  and  _226
REMARK   92  A    between atoms: _226  and  _227
REMARK   93  A    between atoms: _237  and  _239
REMARK   94  A    between atoms: _239  and  _240
REMARK   95  A    between atoms: _239  and  _242
REMARK   96  A    between atoms: _242  and  _243
REMARK   97  A    between atoms: _246  and  _248
REMARK   98  A    between atoms: _248  and  _249
REMARK   99  A    between atoms: _248  and  _251
REMARK  100  A    between atoms: _251  and  _252
REMARK  101  A    between atoms: _252  and  _253
REMARK  102  A    between atoms: _253  and  _254
REMARK  103  A    between atoms: _263  and  _265
REMARK  104  A    between atoms: _265  and  _266
REMARK  105  A    between atoms: _265  and  _268
REMARK  106  A    between atoms: _268  and  _269
REMARK  107  A    between atoms: _274  and  _276
REMARK  108  A    between atoms: _276  and  _277
REMARK  109  A    between atoms: _276  and  _279
REMARK  110  A    between atoms: _279  and  _280
REMARK  111  A    between atoms: _283  and  _285
REMARK  112  A    between atoms: _285  and  _286
REMARK  113  A    between atoms: _285  and  _288
REMARK  114  A    between atoms: _288  and  _289
REMARK  115  A    between atoms: _289  and  _290
REMARK  116  A    between atoms: _295  and  _297
REMARK  117  A    between atoms: _297  and  _298
REMARK  118  A    between atoms: _297  and  _300
REMARK  119  A    between atoms: _300  and  _301
REMARK  120  A    between atoms: _304  and  _306
REMARK  121  A    between atoms: _306  and  _307
REMARK  122  A    between atoms: _306  and  _309
REMARK  123  A    between atoms: _311  and  _313
REMARK  124  A    between atoms: _313  and  _314
REMARK  125  A    between atoms: _313  and  _316
REMARK  126  A    between atoms: _316  and  _317
REMARK  127  A    between atoms: _320  and  _322
REMARK  128  A    between atoms: _322  and  _323
REMARK  129  A    between atoms: _322  and  _325
REMARK  130  A    between atoms: _325  and  _326
REMARK  131  A    between atoms: _331  and  _333
REMARK  132  A    between atoms: _333  and  _334
REMARK  133  A    between atoms: _333  and  _336
REMARK  134  A    between atoms: _336  and  _337
REMARK  135  A    between atoms: _337  and  _338
REMARK  136  A    between atoms: _343  and  _345
REMARK  137  A    between atoms: _345  and  _346
REMARK  138  A    between atoms: _345  and  _348
REMARK  139  A    between atoms: _348  and  _349
REMARK  140  A    between atoms: _352  and  _354
REMARK  141  A    between atoms: _354  and  _355
REMARK  142  A    between atoms: _354  and  _357
REMARK  143  A    between atoms: _357  and  _358
REMARK  144  A    between atoms: _361  and  _363
REMARK  145  A    between atoms: _363  and  _364
REMARK  146  A    between atoms: _363  and  _366
REMARK  147  A    between atoms: _366  and  _367
REMARK  148  A    between atoms: _367  and  _368
REMARK  149  A    between atoms: _368  and  _369
REMARK  150  A    between atoms: _378  and  _380
REMARK  151  A    between atoms: _380  and  _381
REMARK  152  A    between atoms: _380  and  _383
REMARK  153  A    between atoms: _383  and  _384
REMARK  154  A    between atoms: _384  and  _385
REMARK  155  A    between atoms: _388  and  _390
REMARK  156  A    between atoms: _390  and  _391
REMARK  157  A    between atoms: _390  and  _393
REMARK  158  A    between atoms: _393  and  _394
REMARK  159  A    between atoms: _396  and  _398
REMARK  160  A    between atoms: _398  and  _399
REMARK  161  A    between atoms: _398  and  _401
REMARK  162  A    between atoms: _401  and  _402
REMARK  163  A    between atoms: _405  and  _407
REMARK  164  A    between atoms: _407  and  _408
REMARK  165  A    between atoms: _407  and  _410
REMARK  166  A    between atoms: _410  and  _411
REMARK  167  A    between atoms: _411  and  _412
REMARK  168  A    between atoms: _412  and  _413
REMARK  169  A    between atoms: _422  and  _424
REMARK  170  A    between atoms: _424  and  _425
REMARK  171  A    between atoms: _424  and  _427
REMARK  172  A    between atoms: _427  and  _428
REMARK  173  A    between atoms: _433  and  _435
REMARK  174  A    between atoms: _435  and  _436
REMARK  175  A    between atoms: _435  and  _438
REMARK  176  A    between atoms: _438  and  _439
REMARK  177  A    between atoms: _442  and  _444
REMARK  178  A    between atoms: _444  and  _445
REMARK  179  A    between atoms: _444  and  _447
REMARK  180  A    between atoms: _447  and  _448
REMARK  181  A    between atoms: _453  and  _454
REMARK  182  A    between atoms: _456  and  _458
REMARK  183  A    between atoms: _458  and  _459
REMARK  184  A    between atoms: _458  and  _461
REMARK  185  A    between atoms: _461  and  _462
REMARK  186  A    between atoms: _465  and  _467
REMARK  187  A    between atoms: _467  and  _468
REMARK  188  A    between atoms: _467  and  _470
REMARK  189  A    between atoms: _470  and  _471
REMARK  190  A    between atoms: _471  and  _472
REMARK  191  A    between atoms: _477  and  _479
REMARK  192  A    between atoms: _479  and  _480
REMARK  193  A    between atoms: _479  and  _482
REMARK  194  A    between atoms: _482  and  _483
REMARK  195  A    between atoms: _483  and  _484
REMARK  196  A    between atoms: _484  and  _485
REMARK  197  A    between atoms: _494  and  _496
REMARK  198  A    between atoms: _496  and  _497
REMARK  199  A    between atoms: _496  and  _499
REMARK  200  A    between atoms: _499  and  _500
REMARK  201  A    between atoms: _505  and  _506
REMARK  202  A    between atoms: _508  and  _510
REMARK  203  A    between atoms: _510  and  _511
REMARK  204  A    between atoms: _513  and  _515
REMARK  205  A    between atoms: _515  and  _516
REMARK  206  A    between atoms: _515  and  _518
REMARK  207  A    between atoms: _518  and  _519
REMARK  208  A    between atoms: _524  and  _526
REMARK  209  A    between atoms: _526  and  _527
REMARK  210  A    between atoms: _526  and  _529
REMARK  211  A    between atoms: _529  and  _530
REMARK  212  A    between atoms: _530  and  _531
REMARK  213  A    between atoms: _536  and  _538
REMARK  214  A    between atoms: _538  and  _539
REMARK  215  A    between atoms: _538  and  _541
REMARK  216  A    between atoms: _541  and  _542
REMARK  217  A    between atoms: _548  and  _550
REMARK  218  A    between atoms: _550  and  _551
REMARK  219  A    between atoms: _554  and  _556
REMARK  220  A    between atoms: _556  and  _557
REMARK  221  A    between atoms: _556  and  _559
REMARK  222  A    between atoms: _559  and  _560
REMARK  223  A    between atoms: _565  and  _566
REMARK  224  A    between atoms: _568  and  _570
REMARK  225  A    between atoms: _570  and  _571
REMARK  226  A    between atoms: _570  and  _573
REMARK  227  A    between atoms: _573  and  _574
REMARK  228  A    between atoms: _579  and  _580
REMARK  229  A    between atoms: _582  and  _584
REMARK  230  A    between atoms: _584  and  _585
REMARK  231  A    between atoms: _584  and  _587
REMARK  232  A    between atoms: _587  and  _588
REMARK  233  A    between atoms: _591  and  _593
REMARK  234  A    between atoms: _593  and  _594
REMARK  235  A    between atoms: _593  and  _596
REMARK  236  A    between atoms: _596  and  _597
REMARK  237  A    between atoms: _607  and  _609
REMARK  238  A    between atoms: _609  and  _610
REMARK  239  A    between atoms: _613  and  _615
REMARK  240  A    between atoms: _615  and  _616
REMARK  241  A    between atoms: _619  and  _621
REMARK  242  A    between atoms: _621  and  _622
REMARK  243  A    between atoms: _621  and  _624
REMARK  244  A    between atoms: _624  and  _625
REMARK  245  A    between atoms: _625  and  _626
REMARK  246  A    between atoms: _631  and  _633
REMARK  247  A    between atoms: _633  and  _634
REMARK  248  A    between atoms: _633  and  _636
REMARK  249  A    between atoms: _636  and  _637
REMARK  250  A    between atoms: _640  and  _642
REMARK  251  A    between atoms: _642  and  _643
REMARK  252  A    between atoms: _642  and  _645
REMARK  253  A    between atoms: _645  and  _646
REMARK  254  A    between atoms: _649  and  _651
REMARK  255  A    between atoms: _651  and  _652
REMARK  256  A    between atoms: _651  and  _654
REMARK  257  A    between atoms: _654  and  _655
REMARK  258  A    between atoms: _655  and  _656
REMARK  259  A    between atoms: _661  and  _663
REMARK  260  A    between atoms: _663  and  _664
REMARK  261  A    between atoms: _663  and  _666
REMARK  262  A    between atoms: _666  and  _667
REMARK  263  A    between atoms: _667  and  _668
REMARK  264  A    between atoms: _668  and  _669
REMARK  265  A    between atoms: _678  and  _680
REMARK  266  A    between atoms: _680  and  _681
REMARK  267  A    between atoms: _680  and  _683
REMARK  268  A    between atoms: _683  and  _684
REMARK  269  A    between atoms: _684  and  _685
REMARK  270  A    between atoms: _685  and  _686
REMARK  271  A    between atoms: _686  and  _687
REMARK  272  A    between atoms: _691  and  _693
REMARK  273  A    between atoms: _693  and  _694
REMARK  274  A    between atoms: _693  and  _696
REMARK  275  A    between atoms: _696  and  _697
REMARK  276  A    between atoms: _707  and  _709
REMARK  277  A    between atoms: _709  and  _710
REMARK  278  A    between atoms: _713  and  _715
REMARK  279  A    between atoms: _715  and  _716
REMARK  280  A    between atoms: _719  and  _721
REMARK  281  A    between atoms: _721  and  _722
REMARK  282  A    between atoms: _721  and  _724
REMARK  283  A    between atoms: _724  and  _725
REMARK  284  A    between atoms: _725  and  _726
REMARK  285  A    between atoms: _726  and  _727
REMARK  286  A    between atoms: _736  and  _738
REMARK  287  A    between atoms: _738  and  _739
REMARK  288  A    between atoms: _738  and  _741
REMARK  289  A    between atoms: _744  and  _746
REMARK  290  A    between atoms: _746  and  _747
REMARK  291  A    between atoms: _750  and  _752
REMARK  292  A    between atoms: _752  and  _753
REMARK  293  A    between atoms: _752  and  _755
REMARK  294  A    between atoms: _755  and  _756
REMARK  295  A    between atoms: _756  and  _757
REMARK  296  A    between atoms: _760  and  _762
REMARK  297  A    between atoms: _762  and  _763
REMARK  298  A    between atoms: _762  and  _765
REMARK  299  A    between atoms: _765  and  _766
REMARK  300  A    between atoms: _766  and  _767
REMARK  301  A    between atoms: _772  and  _774
REMARK  302  A    between atoms: _774  and  _775
REMARK  303  A    between atoms: _774  and  _777
REMARK  304  A    between atoms: _777  and  _778
REMARK  305  A    between atoms: _781  and  _783
REMARK  306  A    between atoms: _783  and  _784
REMARK  307  A    between atoms: _783  and  _786
REMARK  308  A    between atoms: _786  and  _787
REMARK  309  A    between atoms: _787  and  _788
REMARK  310  A    between atoms: _788  and  _789
REMARK  311  A    between atoms: _798  and  _800
REMARK  312  A    between atoms: _800  and  _801
REMARK  313  A    between atoms: _800  and  _803
REMARK  314  A    between atoms: _803  and  _804
REMARK  315  A    between atoms: _807  and  _809
REMARK  316  A    between atoms: _809  and  _810
REMARK  317  A    between atoms: _809  and  _812
REMARK  318  A    between atoms: _812  and  _813
REMARK  319  A    between atoms: _818  and  _819
REMARK  320  A    between atoms: _821  and  _823
REMARK  321  A    between atoms: _823  and  _824
REMARK  322  A    between atoms: _823  and  _826
REMARK  323  A    between atoms: _826  and  _827
REMARK  324  A    between atoms: _830  and  _832
REMARK  325  A    between atoms: _832  and  _833
REMARK  326  A    between atoms: _832  and  _835
REMARK  327  A    between atoms: _835  and  _836
REMARK  328  A    between atoms: _839  and  _841
REMARK  329  A    between atoms: _841  and  _842
REMARK  330  A    between atoms: _841  and  _844
REMARK  331  A    between atoms: _846  and  _848
REMARK  332  A    between atoms: _848  and  _849
REMARK  333  A    between atoms: _848  and  _851
REMARK  334  A    between atoms: _854  and  _856
REMARK  335  A    between atoms: _856  and  _857
REMARK  336  A    between atoms: _856  and  _859
REMARK  337  A    between atoms: _859  and  _860
REMARK  338  A    between atoms: _860  and  _861
REMARK  339  A    between atoms: _864  and  _866
REMARK  340  A    between atoms: _866  and  _867
REMARK  341  A    between atoms: _866  and  _869
REMARK  342  A    between atoms: _869  and  _870
REMARK  343  A    between atoms: _880  and  _882
REMARK  344  A    between atoms: _882  and  _883
REMARK  345  A    between atoms: _882  and  _885
REMARK  346  A    between atoms: _885  and  _886
REMARK  347  A    between atoms: _889  and  _891
REMARK  348  A    between atoms: _891  and  _892
REMARK  349  A    between atoms: _891  and  _894
REMARK  350  A    between atoms: _894  and  _895
REMARK  351  A    between atoms: _900  and  _901
REMARK                            x       y       z     vdW  Elec       q    Type
REMARK                         _______ _______ _______ _____ _____    ______ ____
ROOT
ATOM      1  O   HOH     1     -16.167  17.798  32.086  0.00  0.00    +0.000 OA
ENDROOT
TORSDOF 0
REMARK  Name = ../refined-set-2016/4o2c/4o2c_pocket.pdb
REMARK  351 active torsions:
REMARK  status: ('A' for Active; 'I' for Inactive)
REMARK    1  A    between atoms: _1  and  _3
REMARK    2  A    between atoms: _3  and  _4
REMARK    3  A    between atoms: _3  and  _6
REMARK    4  A    between atoms: _6  and  _7
REMARK    5  A    between atoms: _7  and  _8
REMARK    6  A    between atoms: _10  and  _12
REMARK    7  A    between atoms: _12  and  _13
REMARK    8  A    between atoms: _12  and  _15
REMARK    9  A    between atoms: _15  and  _16
REMARK   10  A    between atoms: _16  and  _17
REMARK   11  A    between atoms: _17  and  _18
REMARK   12  A    between atoms: _27  and  _29
REMARK   13  A    between atoms: _29  and  _30
REMARK   14  A    between atoms: _29  and  _32
REMARK   15  A    between atoms: _32  and  _33
REMARK   16  A    between atoms: _38  and  _39
REMARK   17  A    between atoms: _41  and  _43
REMARK   18  A    between atoms: _43  and  _44
REMARK   19  A    between atoms: _43  and  _46
REMARK   20  A    between atoms: _46  and  _47
REMARK   21  A    between atoms: _53  and  _55
REMARK   22  A    between atoms: _55  and  _56
REMARK   23  A    between atoms: _55  and  _58
REMARK   24  A    between atoms: _58  and  _59
REMARK   25  A    between atoms: _64  and  _65
REMARK   26  A    between atoms: _67  and  _69
REMARK   27  A    between atoms: _69  and  _70
REMARK   28  A    between atoms: _69  and  _72
REMARK   29  A    between atoms: _72  and  _73
REMARK   30  A    between atoms: _79  and  _81
REMARK   31  A    between atoms: _81  and  _82
REMARK   32  A    between atoms: _81  and  _84
REMARK   33  A    between atoms: _84  and  _85
REMARK   34  A    between atoms: _88  and  _90
REMARK   35  A    between atoms: _90  and  _91
REMARK   36  A    between atoms: _90  and  _93
REMARK   37  A    between atoms: _93  and  _94
REMARK   38  A    between atoms: _96  and  _98
REMARK   39  A    between atoms: _98  and  _99
REMARK   40  A    between atoms: _98  and  _101
REMARK   41  A    between atoms: _104  and  _106
REMARK   42  A    between atoms: _106  and  _107
REMARK   43  A    between atoms: _109  and  _111
REMARK   44  A    between atoms: _111  and  _112
REMARK   45  A    between atoms: _111  and  _114
REMARK   46  A    between atoms: _114  and  _115
REMARK   47  A    between atoms: _121  and  _123
REMARK   48  A    between atoms: _123  and  _124
REMARK   49  A    between atoms: _123  and  _126
REMARK   50  A    between atoms: _129  and  _131
REMARK   51  A    between atoms: _131  and  _132
REMARK   52  A    between atoms: _131  and  _134
REMARK   53  A    between atoms: _134  and  _135
REMARK   54  A    between atoms: _135  and  _136
REMARK   55  A    between atoms: _136  and  _137
REMARK   56  A    between atoms: _146  and  _148
REMARK   57  A    between atoms: _148  and  _149
REMARK   58  A    between atoms: _148  and  _151
REMARK   59  A    between atoms: _151  and  _152
REMARK   60  A    between atoms: _158  and  _160
REMARK   61  A    between atoms: _160  and  _161
REMARK   62  A    between atoms: _160  and  _163
REMARK   63  A    between atoms: _163  and  _164
REMARK   64  A    between atoms: _164  and  _165
REMARK   65  A    between atoms: _168  and  _170
REMARK   66  A    between atoms: _170  and  _171
REMARK   67  A    between atoms: _170  and  _173
REMARK   68  A    between atoms: _173  and  _174
REMARK   69  A    between atoms: _174  and  _175
REMARK   70  A    between atoms: _178  and  _180
REMARK   71  A    between atoms: _180  and  _181
REMARK   72  A    between atoms: _180  and  _183
REMARK   73  A    between atoms: _183  and  _184
REMARK   74  A    between atoms: _187  and  _189
REMARK   75  A    between atoms: _189  and  _190
REMARK   76  A    between atoms: _189  and  _192
REMARK   77  A    between atoms: _192  and  _193
REMARK   78  A    between atoms: _193  and  _194
REMARK   79  A    between atoms: _197  and  _199
REMARK   80  A    between atoms: _199  and  _200
REMARK   81  A    between atoms: _199  and  _202
REMARK   82  A    between atoms: _202  and  _203
REMARK   83  A    between atoms: _203  and  _204
REMARK   84  A    between atoms: _207  and  _209
REMARK   85  A    between atoms: _209  and  _210
REMARK   86  A    between atoms: _209  and  _212
REMARK   87  A    between atoms: _212  and  _213
REMARK   88  A    between atoms: _218  and  _219
REMARK   89  A    between atoms: _221  and  _223
REMARK   90  A    between atoms: _223  and  _224
REMARK   91  A    between atoms: _223  and  _226
REMARK   92  A    between atoms: _226  and  _227
REMARK   93  A    between atoms: _237  and  _239
REMARK   94  A    between atoms: _239  and  _240
REMARK   95  A    between atoms: _239  and  _242
REMARK   96  A    between atoms: _242  and  _243
REMARK   97  A    between atoms: _246  and  _248
REMARK   98  A    between atoms: _248  and  _249
REMARK   99  A    between atoms: _248  and  _251
REMARK  100  A    between atoms: _251  and  _252
REMARK  101  A    between atoms: _252  and  _253
REMARK  102  A    between atoms: _253  and  _254
REMARK  103  A    between atoms: _263  and  _265
REMARK  104  A    between atoms: _265  and  _266
REMARK  105  A    between atoms: _265  and  _268
REMARK  106  A    between atoms: _268  and  _269
REMARK  107  A    between atoms: _274  and  _276
REMARK  108  A    between atoms: _276  and  _277
REMARK  109  A    between atoms: _276  and  _279
REMARK  110  A    between atoms: _279  and  _280
REMARK  111  A    between atoms: _283  and  _285
REMARK  112  A    between atoms: _285  and  _286
REMARK  113  A    between atoms: _285  and  _288
REMARK  114  A    between atoms: _288  and  _289
REMARK  115  A    between atoms: _289  and  _290
REMARK  116  A    between atoms: _295  and  _297
REMARK  117  A    between atoms: _297  and  _298
REMARK  118  A    between atoms: _297  and  _300
REMARK  119  A    between atoms: _300  and  _301
REMARK  120  A    between atoms: _304  and  _306
REMARK  121  A    between atoms: _306  and  _307
REMARK  122  A    between atoms: _306  and  _309
REMARK  123  A    between atoms: _311  and  _313
REMARK  124  A    between atoms: _313  and  _314
REMARK  125  A    between atoms: _313  and  _316
REMARK  126  A    between atoms: _316  and  _317
REMARK  127  A    between atoms: _320  and  _322
REMARK  128  A    between atoms: _322  and  _323
REMARK  129  A    between atoms: _322  and  _325
REMARK  130  A    between atoms: _325  and  _326
REMARK  131  A    between atoms: _331  and  _333
REMARK  132  A    between atoms: _333  and  _334
REMARK  133  A    between atoms: _333  and  _336
REMARK  134  A    between atoms: _336  and  _337
REMARK  135  A    between atoms: _337  and  _338
REMARK  136  A    between atoms: _343  and  _345
REMARK  137  A    between atoms: _345  and  _346
REMARK  138  A    between atoms: _345  and  _348
REMARK  139  A    between atoms: _348  and  _349
REMARK  140  A    between atoms: _352  and  _354
REMARK  141  A    between atoms: _354  and  _355
REMARK  142  A    between atoms: _354  and  _357
REMARK  143  A    between atoms: _357  and  _358
REMARK  144  A    between atoms: _361  and  _363
REMARK  145  A    between atoms: _363  and  _364
REMARK  146  A    between atoms: _363  and  _366
REMARK  147  A    between atoms: _366  and  _367
REMARK  148  A    between atoms: _367  and  _368
REMARK  149  A    between atoms: _368  and  _369
REMARK  150  A    between atoms: _378  and  _380
REMARK  151  A    between atoms: _380  and  _381
REMARK  152  A    between atoms: _380  and  _383
REMARK  153  A    between atoms: _383  and  _384
REMARK  154  A    between atoms: _384  and  _385
REMARK  155  A    between atoms: _388  and  _390
REMARK  156  A    between atoms: _390  and  _391
REMARK  157  A    between atoms: _390  and  _393
REMARK  158  A    between atoms: _393  and  _394
REMARK  159  A    between atoms: _396  and  _398
REMARK  160  A    between atoms: _398  and  _399
REMARK  161  A    between atoms: _398  and  _401
REMARK  162  A    between atoms: _401  and  _402
REMARK  163  A    between atoms: _405  and  _407
REMARK  164  A    between atoms: _407  and  _408
REMARK  165  A    between atoms: _407  and  _410
REMARK  166  A    between atoms: _410  and  _411
REMARK  167  A    between atoms: _411  and  _412
REMARK  168  A    between atoms: _412  and  _413
REMARK  169  A    between atoms: _422  and  _424
REMARK  170  A    between atoms: _424  and  _425
REMARK  171  A    between atoms: _424  and  _427
REMARK  172  A    between atoms: _427  and  _428
REMARK  173  A    between atoms: _433  and  _435
REMARK  174  A    between atoms: _435  and  _436
REMARK  175  A    between atoms: _435  and  _438
REMARK  176  A    between atoms: _438  and  _439
REMARK  177  A    between atoms: _442  and  _444
REMARK  178  A    between atoms: _444  and  _445
REMARK  179  A    between atoms: _444  and  _447
REMARK  180  A    between atoms: _447  and  _448
REMARK  181  A    between atoms: _453  and  _454
REMARK  182  A    between atoms: _456  and  _458
REMARK  183  A    between atoms: _458  and  _459
REMARK  184  A    between atoms: _458  and  _461
REMARK  185  A    between atoms: _461  and  _462
REMARK  186  A    between atoms: _465  and  _467
REMARK  187  A    between atoms: _467  and  _468
REMARK  188  A    between atoms: _467  and  _470
REMARK  189  A    between atoms: _470  and  _471
REMARK  190  A    between atoms: _471  and  _472
REMARK  191  A    between atoms: _477  and  _479
REMARK  192  A    between atoms: _479  and  _480
REMARK  193  A    between atoms: _479  and  _482
REMARK  194  A    between atoms: _482  and  _483
REMARK  195  A    between atoms: _483  and  _484
REMARK  196  A    between atoms: _484  and  _485
REMARK  197  A    between atoms: _494  and  _496
REMARK  198  A    between atoms: _496  and  _497
REMARK  199  A    between atoms: _496  and  _499
REMARK  200  A    between atoms: _499  and  _500
REMARK  201  A    between atoms: _505  and  _506
REMARK  202  A    between atoms: _508  and  _510
REMARK  203  A    between atoms: _510  and  _511
REMARK  204  A    between atoms: _513  and  _515
REMARK  205  A    between atoms: _515  and  _516
REMARK  206  A    between atoms: _515  and  _518
REMARK  207  A    between atoms: _518  and  _519
REMARK  208  A    between atoms: _524  and  _526
REMARK  209  A    between atoms: _526  and  _527
REMARK  210  A    between atoms: _526  and  _529
REMARK  211  A    between atoms: _529  and  _530
REMARK  212  A    between atoms: _530  and  _531
REMARK  213  A    between atoms: _536  and  _538
REMARK  214  A    between atoms: _538  and  _539
REMARK  215  A    between atoms: _538  and  _541
REMARK  216  A    between atoms: _541  and  _542
REMARK  217  A    between atoms: _548  and  _550
REMARK  218  A    between atoms: _550  and  _551
REMARK  219  A    between atoms: _554  and  _556
REMARK  220  A    between atoms: _556  and  _557
REMARK  221  A    between atoms: _556  and  _559
REMARK  222  A    between atoms: _559  and  _560
REMARK  223  A    between atoms: _565  and  _566
REMARK  224  A    between atoms: _568  and  _570
REMARK  225  A    between atoms: _570  and  _571
REMARK  226  A    between atoms: _570  and  _573
REMARK  227  A    between atoms: _573  and  _574
REMARK  228  A    between atoms: _579  and  _580
REMARK  229  A    between atoms: _582  and  _584
REMARK  230  A    between atoms: _584  and  _585
REMARK  231  A    between atoms: _584  and  _587
REMARK  232  A    between atoms: _587  and  _588
REMARK  233  A    between atoms: _591  and  _593
REMARK  234  A    between atoms: _593  and  _594
REMARK  235  A    between atoms: _593  and  _596
REMARK  236  A    between atoms: _596  and  _597
REMARK  237  A    between atoms: _607  and  _609
REMARK  238  A    between atoms: _609  and  _610
REMARK  239  A    between atoms: _613  and  _615
REMARK  240  A    between atoms: _615  and  _616
REMARK  241  A    between atoms: _619  and  _621
REMARK  242  A    between atoms: _621  and  _622
REMARK  243  A    between atoms: _621  and  _624
REMARK  244  A    between atoms: _624  and  _625
REMARK  245  A    between atoms: _625  and  _626
REMARK  246  A    between atoms: _631  and  _633
REMARK  247  A    between atoms: _633  and  _634
REMARK  248  A    between atoms: _633  and  _636
REMARK  249  A    between atoms: _636  and  _637
REMARK  250  A    between atoms: _640  and  _642
REMARK  251  A    between atoms: _642  and  _643
REMARK  252  A    between atoms: _642  and  _645
REMARK  253  A    between atoms: _645  and  _646
REMARK  254  A    between atoms: _649  and  _651
REMARK  255  A    between atoms: _651  and  _652
REMARK  256  A    between atoms: _651  and  _654
REMARK  257  A    between atoms: _654  and  _655
REMARK  258  A    between atoms: _655  and  _656
REMARK  259  A    between atoms: _661  and  _663
REMARK  260  A    between atoms: _663  and  _664
REMARK  261  A    between atoms: _663  and  _666
REMARK  262  A    between atoms: _666  and  _667
REMARK  263  A    between atoms: _667  and  _668
REMARK  264  A    between atoms: _668  and  _669
REMARK  265  A    between atoms: _678  and  _680
REMARK  266  A    between atoms: _680  and  _681
REMARK  267  A    between atoms: _680  and  _683
REMARK  268  A    between atoms: _683  and  _684
REMARK  269  A    between atoms: _684  and  _685
REMARK  270  A    between atoms: _685  and  _686
REMARK  271  A    between atoms: _686  and  _687
REMARK  272  A    between atoms: _691  and  _693
REMARK  273  A    between atoms: _693  and  _694
REMARK  274  A    between atoms: _693  and  _696
REMARK  275  A    between atoms: _696  and  _697
REMARK  276  A    between atoms: _707  and  _709
REMARK  277  A    between atoms: _709  and  _710
REMARK  278  A    between atoms: _713  and  _715
REMARK  279  A    between atoms: _715  and  _716
REMARK  280  A    between atoms: _719  and  _721
REMARK  281  A    between atoms: _721  and  _722
REMARK  282  A    between atoms: _721  and  _724
REMARK  283  A    between atoms: _724  and  _725
REMARK  284  A    between atoms: _725  and  _726
REMARK  285  A    between atoms: _726  and  _727
REMARK  286  A    between atoms: _736  and  _738
REMARK  287  A    between atoms: _738  and  _739
REMARK  288  A    between atoms: _738  and  _741
REMARK  289  A    between atoms: _744  and  _746
REMARK  290  A    between atoms: _746  and  _747
REMARK  291  A    between atoms: _750  and  _752
REMARK  292  A    between atoms: _752  and  _753
REMARK  293  A    between atoms: _752  and  _755
REMARK  294  A    between atoms: _755  and  _756
REMARK  295  A    between atoms: _756  and  _757
REMARK  296  A    between atoms: _760  and  _762
REMARK  297  A    between atoms: _762  and  _763
REMARK  298  A    between atoms: _762  and  _765
REMARK  299  A    between atoms: _765  and  _766
REMARK  300  A    between atoms: _766  and  _767
REMARK  301  A    between atoms: _772  and  _774
REMARK  302  A    between atoms: _774  and  _775
REMARK  303  A    between atoms: _774  and  _777
REMARK  304  A    between atoms: _777  and  _778
REMARK  305  A    between atoms: _781  and  _783
REMARK  306  A    between atoms: _783  and  _784
REMARK  307  A    between atoms: _783  and  _786
REMARK  308  A    between atoms: _786  and  _787
REMARK  309  A    between atoms: _787  and  _788
REMARK  310  A    between atoms: _788  and  _789
REMARK  311  A    between atoms: _798  and  _800
REMARK  312  A    between atoms: _800  and  _801
REMARK  313  A    between atoms: _800  and  _803
REMARK  314  A    between atoms: _803  and  _804
REMARK  315  A    between atoms: _807  and  _809
REMARK  316  A    between atoms: _809  and  _810
REMARK  317  A    between atoms: _809  and  _812
REMARK  318  A    between atoms: _812  and  _813
REMARK  319  A    between atoms: _818  and  _819
REMARK  320  A    between atoms: _821  and  _823
REMARK  321  A    between atoms: _823  and  _824
REMARK  322  A    between atoms: _823  and  _826
REMARK  323  A    between atoms: _826  and  _827
REMARK  324  A    between atoms: _830  and  _832
REMARK  325  A    between atoms: _832  and  _833
REMARK  326  A    between atoms: _832  and  _835
REMARK  327  A    between atoms: _835  and  _836
REMARK  328  A    between atoms: _839  and  _841
REMARK  329  A    between atoms: _841  and  _842
REMARK  330  A    between atoms: _841  and  _844
REMARK  331  A    between atoms: _846  and  _848
REMARK  332  A    between atoms: _848  and  _849
REMARK  333  A    between atoms: _848  and  _851
REMARK  334  A    between atoms: _854  and  _856
REMARK  335  A    between atoms: _856  and  _857
REMARK  336  A    between atoms: _856  and  _859
REMARK  337  A    between atoms: _859  and  _860
REMARK  338  A    between atoms: _860  and  _861
REMARK  339  A    between atoms: _864  and  _866
REMARK  340  A    between atoms: _866  and  _867
REMARK  341  A    between atoms: _866  and  _869
REMARK  342  A    between atoms: _869  and  _870
REMARK  343  A    between atoms: _880  and  _882
REMARK  344  A    between atoms: _882  and  _883
REMARK  345  A    between atoms: _882  and  _885
REMARK  346  A    between atoms: _885  and  _886
REMARK  347  A    between atoms: _889  and  _891
REMARK  348  A    between atoms: _891  and  _892
REMARK  349  A    between atoms: _891  and  _894
REMARK  350  A    between atoms: _894  and  _895
REMARK  351  A    between atoms: _900  and  _901
REMARK                            x       y       z     vdW  Elec       q    Type
REMARK                         _______ _______ _______ _____ _____    ______ ____
ROOT
ATOM      1  O   HOH     1     -12.705  18.223  37.940  0.00  0.00    +0.000 OA
ENDROOT
TORSDOF 0
REMARK  Name = ../refined-set-2016/4o2c/4o2c_pocket.pdb
REMARK  351 active torsions:
REMARK  status: ('A' for Active; 'I' for Inactive)
REMARK    1  A    between atoms: _1  and  _3
REMARK    2  A    between atoms: _3  and  _4
REMARK    3  A    between atoms: _3  and  _6
REMARK    4  A    between atoms: _6  and  _7
REMARK    5  A    between atoms: _7  and  _8
REMARK    6  A    between atoms: _10  and  _12
REMARK    7  A    between atoms: _12  and  _13
REMARK    8  A    between atoms: _12  and  _15
REMARK    9  A    between atoms: _15  and  _16
REMARK   10  A    between atoms: _16  and  _17
REMARK   11  A    between atoms: _17  and  _18
REMARK   12  A    between atoms: _27  and  _29
REMARK   13  A    between atoms: _29  and  _30
REMARK   14  A    between atoms: _29  and  _32
REMARK   15  A    between atoms: _32  and  _33
REMARK   16  A    between atoms: _38  and  _39
REMARK   17  A    between atoms: _41  and  _43
REMARK   18  A    between atoms: _43  and  _44
REMARK   19  A    between atoms: _43  and  _46
REMARK   20  A    between atoms: _46  and  _47
REMARK   21  A    between atoms: _53  and  _55
REMARK   22  A    between atoms: _55  and  _56
REMARK   23  A    between atoms: _55  and  _58
REMARK   24  A    between atoms: _58  and  _59
REMARK   25  A    between atoms: _64  and  _65
REMARK   26  A    between atoms: _67  and  _69
REMARK   27  A    between atoms: _69  and  _70
REMARK   28  A    between atoms: _69  and  _72
REMARK   29  A    between atoms: _72  and  _73
REMARK   30  A    between atoms: _79  and  _81
REMARK   31  A    between atoms: _81  and  _82
REMARK   32  A    between atoms: _81  and  _84
REMARK   33  A    between atoms: _84  and  _85
REMARK   34  A    between atoms: _88  and  _90
REMARK   35  A    between atoms: _90  and  _91
REMARK   36  A    between atoms: _90  and  _93
REMARK   37  A    between atoms: _93  and  _94
REMARK   38  A    between atoms: _96  and  _98
REMARK   39  A    between atoms: _98  and  _99
REMARK   40  A    between atoms: _98  and  _101
REMARK   41  A    between atoms: _104  and  _106
REMARK   42  A    between atoms: _106  and  _107
REMARK   43  A    between atoms: _109  and  _111
REMARK   44  A    between atoms: _111  and  _112
REMARK   45  A    between atoms: _111  and  _114
REMARK   46  A    between atoms: _114  and  _115
REMARK   47  A    between atoms: _121  and  _123
REMARK   48  A    between atoms: _123  and  _124
REMARK   49  A    between atoms: _123  and  _126
REMARK   50  A    between atoms: _129  and  _131
REMARK   51  A    between atoms: _131  and  _132
REMARK   52  A    between atoms: _131  and  _134
REMARK   53  A    between atoms: _134  and  _135
REMARK   54  A    between atoms: _135  and  _136
REMARK   55  A    between atoms: _136  and  _137
REMARK   56  A    between atoms: _146  and  _148
REMARK   57  A    between atoms: _148  and  _149
REMARK   58  A    between atoms: _148  and  _151
REMARK   59  A    between atoms: _151  and  _152
REMARK   60  A    between atoms: _158  and  _160
REMARK   61  A    between atoms: _160  and  _161
REMARK   62  A    between atoms: _160  and  _163
REMARK   63  A    between atoms: _163  and  _164
REMARK   64  A    between atoms: _164  and  _165
REMARK   65  A    between atoms: _168  and  _170
REMARK   66  A    between atoms: _170  and  _171
REMARK   67  A    between atoms: _170  and  _173
REMARK   68  A    between atoms: _173  and  _174
REMARK   69  A    between atoms: _174  and  _175
REMARK   70  A    between atoms: _178  and  _180
REMARK   71  A    between atoms: _180  and  _181
REMARK   72  A    between atoms: _180  and  _183
REMARK   73  A    between atoms: _183  and  _184
REMARK   74  A    between atoms: _187  and  _189
REMARK   75  A    between atoms: _189  and  _190
REMARK   76  A    between atoms: _189  and  _192
REMARK   77  A    between atoms: _192  and  _193
REMARK   78  A    between atoms: _193  and  _194
REMARK   79  A    between atoms: _197  and  _199
REMARK   80  A    between atoms: _199  and  _200
REMARK   81  A    between atoms: _199  and  _202
REMARK   82  A    between atoms: _202  and  _203
REMARK   83  A    between atoms: _203  and  _204
REMARK   84  A    between atoms: _207  and  _209
REMARK   85  A    between atoms: _209  and  _210
REMARK   86  A    between atoms: _209  and  _212
REMARK   87  A    between atoms: _212  and  _213
REMARK   88  A    between atoms: _218  and  _219
REMARK   89  A    between atoms: _221  and  _223
REMARK   90  A    between atoms: _223  and  _224
REMARK   91  A    between atoms: _223  and  _226
REMARK   92  A    between atoms: _226  and  _227
REMARK   93  A    between atoms: _237  and  _239
REMARK   94  A    between atoms: _239  and  _240
REMARK   95  A    between atoms: _239  and  _242
REMARK   96  A    between atoms: _242  and  _243
REMARK   97  A    between atoms: _246  and  _248
REMARK   98  A    between atoms: _248  and  _249
REMARK   99  A    between atoms: _248  and  _251
REMARK  100  A    between atoms: _251  and  _252
REMARK  101  A    between atoms: _252  and  _253
REMARK  102  A    between atoms: _253  and  _254
REMARK  103  A    between atoms: _263  and  _265
REMARK  104  A    between atoms: _265  and  _266
REMARK  105  A    between atoms: _265  and  _268
REMARK  106  A    between atoms: _268  and  _269
REMARK  107  A    between atoms: _274  and  _276
REMARK  108  A    between atoms: _276  and  _277
REMARK  109  A    between atoms: _276  and  _279
REMARK  110  A    between atoms: _279  and  _280
REMARK  111  A    between atoms: _283  and  _285
REMARK  112  A    between atoms: _285  and  _286
REMARK  113  A    between atoms: _285  and  _288
REMARK  114  A    between atoms: _288  and  _289
REMARK  115  A    between atoms: _289  and  _290
REMARK  116  A    between atoms: _295  and  _297
REMARK  117  A    between atoms: _297  and  _298
REMARK  118  A    between atoms: _297  and  _300
REMARK  119  A    between atoms: _300  and  _301
REMARK  120  A    between atoms: _304  and  _306
REMARK  121  A    between atoms: _306  and  _307
REMARK  122  A    between atoms: _306  and  _309
REMARK  123  A    between atoms: _311  and  _313
REMARK  124  A    between atoms: _313  and  _314
REMARK  125  A    between atoms: _313  and  _316
REMARK  126  A    between atoms: _316  and  _317
REMARK  127  A    between atoms: _320  and  _322
REMARK  128  A    between atoms: _322  and  _323
REMARK  129  A    between atoms: _322  and  _325
REMARK  130  A    between atoms: _325  and  _326
REMARK  131  A    between atoms: _331  and  _333
REMARK  132  A    between atoms: _333  and  _334
REMARK  133  A    between atoms: _333  and  _336
REMARK  134  A    between atoms: _336  and  _337
REMARK  135  A    between atoms: _337  and  _338
REMARK  136  A    between atoms: _343  and  _345
REMARK  137  A    between atoms: _345  and  _346
REMARK  138  A    between atoms: _345  and  _348
REMARK  139  A    between atoms: _348  and  _349
REMARK  140  A    between atoms: _352  and  _354
REMARK  141  A    between atoms: _354  and  _355
REMARK  142  A    between atoms: _354  and  _357
REMARK  143  A    between atoms: _357  and  _358
REMARK  144  A    between atoms: _361  and  _363
REMARK  145  A    between atoms: _363  and  _364
REMARK  146  A    between atoms: _363  and  _366
REMARK  147  A    between atoms: _366  and  _367
REMARK  148  A    between atoms: _367  and  _368
REMARK  149  A    between atoms: _368  and  _369
REMARK  150  A    between atoms: _378  and  _380
REMARK  151  A    between atoms: _380  and  _381
REMARK  152  A    between atoms: _380  and  _383
REMARK  153  A    between atoms: _383  and  _384
REMARK  154  A    between atoms: _384  and  _385
REMARK  155  A    between atoms: _388  and  _390
REMARK  156  A    between atoms: _390  and  _391
REMARK  157  A    between atoms: _390  and  _393
REMARK  158  A    between atoms: _393  and  _394
REMARK  159  A    between atoms: _396  and  _398
REMARK  160  A    between atoms: _398  and  _399
REMARK  161  A    between atoms: _398  and  _401
REMARK  162  A    between atoms: _401  and  _402
REMARK  163  A    between atoms: _405  and  _407
REMARK  164  A    between atoms: _407  and  _408
REMARK  165  A    between atoms: _407  and  _410
REMARK  166  A    between atoms: _410  and  _411
REMARK  167  A    between atoms: _411  and  _412
REMARK  168  A    between atoms: _412  and  _413
REMARK  169  A    between atoms: _422  and  _424
REMARK  170  A    between atoms: _424  and  _425
REMARK  171  A    between atoms: _424  and  _427
REMARK  172  A    between atoms: _427  and  _428
REMARK  173  A    between atoms: _433  and  _435
REMARK  174  A    between atoms: _435  and  _436
REMARK  175  A    between atoms: _435  and  _438
REMARK  176  A    between atoms: _438  and  _439
REMARK  177  A    between atoms: _442  and  _444
REMARK  178  A    between atoms: _444  and  _445
REMARK  179  A    between atoms: _444  and  _447
REMARK  180  A    between atoms: _447  and  _448
REMARK  181  A    between atoms: _453  and  _454
REMARK  182  A    between atoms: _456  and  _458
REMARK  183  A    between atoms: _458  and  _459
REMARK  184  A    between atoms: _458  and  _461
REMARK  185  A    between atoms: _461  and  _462
REMARK  186  A    between atoms: _465  and  _467
REMARK  187  A    between atoms: _467  and  _468
REMARK  188  A    between atoms: _467  and  _470
REMARK  189  A    between atoms: _470  and  _471
REMARK  190  A    between atoms: _471  and  _472
REMARK  191  A    between atoms: _477  and  _479
REMARK  192  A    between atoms: _479  and  _480
REMARK  193  A    between atoms: _479  and  _482
REMARK  194  A    between atoms: _482  and  _483
REMARK  195  A    between atoms: _483  and  _484
REMARK  196  A    between atoms: _484  and  _485
REMARK  197  A    between atoms: _494  and  _496
REMARK  198  A    between atoms: _496  and  _497
REMARK  199  A    between atoms: _496  and  _499
REMARK  200  A    between atoms: _499  and  _500
REMARK  201  A    between atoms: _505  and  _506
REMARK  202  A    between atoms: _508  and  _510
REMARK  203  A    between atoms: _510  and  _511
REMARK  204  A    between atoms: _513  and  _515
REMARK  205  A    between atoms: _515  and  _516
REMARK  206  A    between atoms: _515  and  _518
REMARK  207  A    between atoms: _518  and  _519
REMARK  208  A    between atoms: _524  and  _526
REMARK  209  A    between atoms: _526  and  _527
REMARK  210  A    between atoms: _526  and  _529
REMARK  211  A    between atoms: _529  and  _530
REMARK  212  A    between atoms: _530  and  _531
REMARK  213  A    between atoms: _536  and  _538
REMARK  214  A    between atoms: _538  and  _539
REMARK  215  A    between atoms: _538  and  _541
REMARK  216  A    between atoms: _541  and  _542
REMARK  217  A    between atoms: _548  and  _550
REMARK  218  A    between atoms: _550  and  _551
REMARK  219  A    between atoms: _554  and  _556
REMARK  220  A    between atoms: _556  and  _557
REMARK  221  A    between atoms: _556  and  _559
REMARK  222  A    between atoms: _559  and  _560
REMARK  223  A    between atoms: _565  and  _566
REMARK  224  A    between atoms: _568  and  _570
REMARK  225  A    between atoms: _570  and  _571
REMARK  226  A    between atoms: _570  and  _573
REMARK  227  A    between atoms: _573  and  _574
REMARK  228  A    between atoms: _579  and  _580
REMARK  229  A    between atoms: _582  and  _584
REMARK  230  A    between atoms: _584  and  _585
REMARK  231  A    between atoms: _584  and  _587
REMARK  232  A    between atoms: _587  and  _588
REMARK  233  A    between atoms: _591  and  _593
REMARK  234  A    between atoms: _593  and  _594
REMARK  235  A    between atoms: _593  and  _596
REMARK  236  A    between atoms: _596  and  _597
REMARK  237  A    between atoms: _607  and  _609
REMARK  238  A    between atoms: _609  and  _610
REMARK  239  A    between atoms: _613  and  _615
REMARK  240  A    between atoms: _615  and  _616
REMARK  241  A    between atoms: _619  and  _621
REMARK  242  A    between atoms: _621  and  _622
REMARK  243  A    between atoms: _621  and  _624
REMARK  244  A    between atoms: _624  and  _625
REMARK  245  A    between atoms: _625  and  _626
REMARK  246  A    between atoms: _631  and  _633
REMARK  247  A    between atoms: _633  and  _634
REMARK  248  A    between atoms: _633  and  _636
REMARK  249  A    between atoms: _636  and  _637
REMARK  250  A    between atoms: _640  and  _642
REMARK  251  A    between atoms: _642  and  _643
REMARK  252  A    between atoms: _642  and  _645
REMARK  253  A    between atoms: _645  and  _646
REMARK  254  A    between atoms: _649  and  _651
REMARK  255  A    between atoms: _651  and  _652
REMARK  256  A    between atoms: _651  and  _654
REMARK  257  A    between atoms: _654  and  _655
REMARK  258  A    between atoms: _655  and  _656
REMARK  259  A    between atoms: _661  and  _663
REMARK  260  A    between atoms: _663  and  _664
REMARK  261  A    between atoms: _663  and  _666
REMARK  262  A    between atoms: _666  and  _667
REMARK  263  A    between atoms: _667  and  _668
REMARK  264  A    between atoms: _668  and  _669
REMARK  265  A    between atoms: _678  and  _680
REMARK  266  A    between atoms: _680  and  _681
REMARK  267  A    between atoms: _680  and  _683
REMARK  268  A    between atoms: _683  and  _684
REMARK  269  A    between atoms: _684  and  _685
REMARK  270  A    between atoms: _685  and  _686
REMARK  271  A    between atoms: _686  and  _687
REMARK  272  A    between atoms: _691  and  _693
REMARK  273  A    between atoms: _693  and  _694
REMARK  274  A    between atoms: _693  and  _696
REMARK  275  A    between atoms: _696  and  _697
REMARK  276  A    between atoms: _707  and  _709
REMARK  277  A    between atoms: _709  and  _710
REMARK  278  A    between atoms: _713  and  _715
REMARK  279  A    between atoms: _715  and  _716
REMARK  280  A    between atoms: _719  and  _721
REMARK  281  A    between atoms: _721  and  _722
REMARK  282  A    between atoms: _721  and  _724
REMARK  283  A    between atoms: _724  and  _725
REMARK  284  A    between atoms: _725  and  _726
REMARK  285  A    between atoms: _726  and  _727
REMARK  286  A    between atoms: _736  and  _738
REMARK  287  A    between atoms: _738  and  _739
REMARK  288  A    between atoms: _738  and  _741
REMARK  289  A    between atoms: _744  and  _746
REMARK  290  A    between atoms: _746  and  _747
REMARK  291  A    between atoms: _750  and  _752
REMARK  292  A    between atoms: _752  and  _753
REMARK  293  A    between atoms: _752  and  _755
REMARK  294  A    between atoms: _755  and  _756
REMARK  295  A    between atoms: _756  and  _757
REMARK  296  A    between atoms: _760  and  _762
REMARK  297  A    between atoms: _762  and  _763
REMARK  298  A    between atoms: _762  and  _765
REMARK  299  A    between atoms: _765  and  _766
REMARK  300  A    between atoms: _766  and  _767
REMARK  301  A    between atoms: _772  and  _774
REMARK  302  A    between atoms: _774  and  _775
REMARK  303  A    between atoms: _774  and  _777
REMARK  304  A    between atoms: _777  and  _778
REMARK  305  A    between atoms: _781  and  _783
REMARK  306  A    between atoms: _783  and  _784
REMARK  307  A    between atoms: _783  and  _786
REMARK  308  A    between atoms: _786  and  _787
REMARK  309  A    between atoms: _787  and  _788
REMARK  310  A    between atoms: _788  and  _789
REMARK  311  A    between atoms: _798  and  _800
REMARK  312  A    between atoms: _800  and  _801
REMARK  313  A    between atoms: _800  and  _803
REMARK  314  A    between atoms: _803  and  _804
REMARK  315  A    between atoms: _807  and  _809
REMARK  316  A    between atoms: _809  and  _810
REMARK  317  A    between atoms: _809  and  _812
REMARK  318  A    between atoms: _812  and  _813
REMARK  319  A    between atoms: _818  and  _819
REMARK  320  A    between atoms: _821  and  _823
REMARK  321  A    between atoms: _823  and  _824
REMARK  322  A    between atoms: _823  and  _826
REMARK  323  A    between atoms: _826  and  _827
REMARK  324  A    between atoms: _830  and  _832
REMARK  325  A    between atoms: _832  and  _833
REMARK  326  A    between atoms: _832  and  _835
REMARK  327  A    between atoms: _835  and  _836
REMARK  328  A    between atoms: _839  and  _841
REMARK  329  A    between atoms: _841  and  _842
REMARK  330  A    between atoms: _841  and  _844
REMARK  331  A    between atoms: _846  and  _848
REMARK  332  A    between atoms: _848  and  _849
REMARK  333  A    between atoms: _848  and  _851
REMARK  334  A    between atoms: _854  and  _856
REMARK  335  A    between atoms: _856  and  _857
REMARK  336  A    between atoms: _856  and  _859
REMARK  337  A    between atoms: _859  and  _860
REMARK  338  A    between atoms: _860  and  _861
REMARK  339  A    between atoms: _864  and  _866
REMARK  340  A    between atoms: _866  and  _867
REMARK  341  A    between atoms: _866  and  _869
REMARK  342  A    between atoms: _869  and  _870
REMARK  343  A    between atoms: _880  and  _882
REMARK  344  A    between atoms: _882  and  _883
REMARK  345  A    between atoms: _882  and  _885
REMARK  346  A    between atoms: _885  and  _886
REMARK  347  A    between atoms: _889  and  _891
REMARK  348  A    between atoms: _891  and  _892
REMARK  349  A    between atoms: _891  and  _894
REMARK  350  A    between atoms: _894  and  _895
REMARK  351  A    between atoms: _900  and  _901
REMARK                            x       y       z     vdW  Elec       q    Type
REMARK                         _______ _______ _______ _____ _____    ______ ____
ROOT
ATOM      1  O   HOH     1      -7.924   2.449  36.306  0.00  0.00    +0.000 OA
ENDROOT
TORSDOF 0
REMARK  Name = ../refined-set-2016/4o2c/4o2c_pocket.pdb
REMARK  351 active torsions:
REMARK  status: ('A' for Active; 'I' for Inactive)
REMARK    1  A    between atoms: _1  and  _3
REMARK    2  A    between atoms: _3  and  _4
REMARK    3  A    between atoms: _3  and  _6
REMARK    4  A    between atoms: _6  and  _7
REMARK    5  A    between atoms: _7  and  _8
REMARK    6  A    between atoms: _10  and  _12
REMARK    7  A    between atoms: _12  and  _13
REMARK    8  A    between atoms: _12  and  _15
REMARK    9  A    between atoms: _15  and  _16
REMARK   10  A    between atoms: _16  and  _17
REMARK   11  A    between atoms: _17  and  _18
REMARK   12  A    between atoms: _27  and  _29
REMARK   13  A    between atoms: _29  and  _30
REMARK   14  A    between atoms: _29  and  _32
REMARK   15  A    between atoms: _32  and  _33
REMARK   16  A    between atoms: _38  and  _39
REMARK   17  A    between atoms: _41  and  _43
REMARK   18  A    between atoms: _43  and  _44
REMARK   19  A    between atoms: _43  and  _46
REMARK   20  A    between atoms: _46  and  _47
REMARK   21  A    between atoms: _53  and  _55
REMARK   22  A    between atoms: _55  and  _56
REMARK   23  A    between atoms: _55  and  _58
REMARK   24  A    between atoms: _58  and  _59
REMARK   25  A    between atoms: _64  and  _65
REMARK   26  A    between atoms: _67  and  _69
REMARK   27  A    between atoms: _69  and  _70
REMARK   28  A    between atoms: _69  and  _72
REMARK   29  A    between atoms: _72  and  _73
REMARK   30  A    between atoms: _79  and  _81
REMARK   31  A    between atoms: _81  and  _82
REMARK   32  A    between atoms: _81  and  _84
REMARK   33  A    between atoms: _84  and  _85
REMARK   34  A    between atoms: _88  and  _90
REMARK   35  A    between atoms: _90  and  _91
REMARK   36  A    between atoms: _90  and  _93
REMARK   37  A    between atoms: _93  and  _94
REMARK   38  A    between atoms: _96  and  _98
REMARK   39  A    between atoms: _98  and  _99
REMARK   40  A    between atoms: _98  and  _101
REMARK   41  A    between atoms: _104  and  _106
REMARK   42  A    between atoms: _106  and  _107
REMARK   43  A    between atoms: _109  and  _111
REMARK   44  A    between atoms: _111  and  _112
REMARK   45  A    between atoms: _111  and  _114
REMARK   46  A    between atoms: _114  and  _115
REMARK   47  A    between atoms: _121  and  _123
REMARK   48  A    between atoms: _123  and  _124
REMARK   49  A    between atoms: _123  and  _126
REMARK   50  A    between atoms: _129  and  _131
REMARK   51  A    between atoms: _131  and  _132
REMARK   52  A    between atoms: _131  and  _134
REMARK   53  A    between atoms: _134  and  _135
REMARK   54  A    between atoms: _135  and  _136
REMARK   55  A    between atoms: _136  and  _137
REMARK   56  A    between atoms: _146  and  _148
REMARK   57  A    between atoms: _148  and  _149
REMARK   58  A    between atoms: _148  and  _151
REMARK   59  A    between atoms: _151  and  _152
REMARK   60  A    between atoms: _158  and  _160
REMARK   61  A    between atoms: _160  and  _161
REMARK   62  A    between atoms: _160  and  _163
REMARK   63  A    between atoms: _163  and  _164
REMARK   64  A    between atoms: _164  and  _165
REMARK   65  A    between atoms: _168  and  _170
REMARK   66  A    between atoms: _170  and  _171
REMARK   67  A    between atoms: _170  and  _173
REMARK   68  A    between atoms: _173  and  _174
REMARK   69  A    between atoms: _174  and  _175
REMARK   70  A    between atoms: _178  and  _180
REMARK   71  A    between atoms: _180  and  _181
REMARK   72  A    between atoms: _180  and  _183
REMARK   73  A    between atoms: _183  and  _184
REMARK   74  A    between atoms: _187  and  _189
REMARK   75  A    between atoms: _189  and  _190
REMARK   76  A    between atoms: _189  and  _192
REMARK   77  A    between atoms: _192  and  _193
REMARK   78  A    between atoms: _193  and  _194
REMARK   79  A    between atoms: _197  and  _199
REMARK   80  A    between atoms: _199  and  _200
REMARK   81  A    between atoms: _199  and  _202
REMARK   82  A    between atoms: _202  and  _203
REMARK   83  A    between atoms: _203  and  _204
REMARK   84  A    between atoms: _207  and  _209
REMARK   85  A    between atoms: _209  and  _210
REMARK   86  A    between atoms: _209  and  _212
REMARK   87  A    between atoms: _212  and  _213
REMARK   88  A    between atoms: _218  and  _219
REMARK   89  A    between atoms: _221  and  _223
REMARK   90  A    between atoms: _223  and  _224
REMARK   91  A    between atoms: _223  and  _226
REMARK   92  A    between atoms: _226  and  _227
REMARK   93  A    between atoms: _237  and  _239
REMARK   94  A    between atoms: _239  and  _240
REMARK   95  A    between atoms: _239  and  _242
REMARK   96  A    between atoms: _242  and  _243
REMARK   97  A    between atoms: _246  and  _248
REMARK   98  A    between atoms: _248  and  _249
REMARK   99  A    between atoms: _248  and  _251
REMARK  100  A    between atoms: _251  and  _252
REMARK  101  A    between atoms: _252  and  _253
REMARK  102  A    between atoms: _253  and  _254
REMARK  103  A    between atoms: _263  and  _265
REMARK  104  A    between atoms: _265  and  _266
REMARK  105  A    between atoms: _265  and  _268
REMARK  106  A    between atoms: _268  and  _269
REMARK  107  A    between atoms: _274  and  _276
REMARK  108  A    between atoms: _276  and  _277
REMARK  109  A    between atoms: _276  and  _279
REMARK  110  A    between atoms: _279  and  _280
REMARK  111  A    between atoms: _283  and  _285
REMARK  112  A    between atoms: _285  and  _286
REMARK  113  A    between atoms: _285  and  _288
REMARK  114  A    between atoms: _288  and  _289
REMARK  115  A    between atoms: _289  and  _290
REMARK  116  A    between atoms: _295  and  _297
REMARK  117  A    between atoms: _297  and  _298
REMARK  118  A    between atoms: _297  and  _300
REMARK  119  A    between atoms: _300  and  _301
REMARK  120  A    between atoms: _304  and  _306
REMARK  121  A    between atoms: _306  and  _307
REMARK  122  A    between atoms: _306  and  _309
REMARK  123  A    between atoms: _311  and  _313
REMARK  124  A    between atoms: _313  and  _314
REMARK  125  A    between atoms: _313  and  _316
REMARK  126  A    between atoms: _316  and  _317
REMARK  127  A    between atoms: _320  and  _322
REMARK  128  A    between atoms: _322  and  _323
REMARK  129  A    between atoms: _322  and  _325
REMARK  130  A    between atoms: _325  and  _326
REMARK  131  A    between atoms: _331  and  _333
REMARK  132  A    between atoms: _333  and  _334
REMARK  133  A    between atoms: _333  and  _336
REMARK  134  A    between atoms: _336  and  _337
REMARK  135  A    between atoms: _337  and  _338
REMARK  136  A    between atoms: _343  and  _345
REMARK  137  A    between atoms: _345  and  _346
REMARK  138  A    between atoms: _345  and  _348
REMARK  139  A    between atoms: _348  and  _349
REMARK  140  A    between atoms: _352  and  _354
REMARK  141  A    between atoms: _354  and  _355
REMARK  142  A    between atoms: _354  and  _357
REMARK  143  A    between atoms: _357  and  _358
REMARK  144  A    between atoms: _361  and  _363
REMARK  145  A    between atoms: _363  and  _364
REMARK  146  A    between atoms: _363  and  _366
REMARK  147  A    between atoms: _366  and  _367
REMARK  148  A    between atoms: _367  and  _368
REMARK  149  A    between atoms: _368  and  _369
REMARK  150  A    between atoms: _378  and  _380
REMARK  151  A    between atoms: _380  and  _381
REMARK  152  A    between atoms: _380  and  _383
REMARK  153  A    between atoms: _383  and  _384
REMARK  154  A    between atoms: _384  and  _385
REMARK  155  A    between atoms: _388  and  _390
REMARK  156  A    between atoms: _390  and  _391
REMARK  157  A    between atoms: _390  and  _393
REMARK  158  A    between atoms: _393  and  _394
REMARK  159  A    between atoms: _396  and  _398
REMARK  160  A    between atoms: _398  and  _399
REMARK  161  A    between atoms: _398  and  _401
REMARK  162  A    between atoms: _401  and  _402
REMARK  163  A    between atoms: _405  and  _407
REMARK  164  A    between atoms: _407  and  _408
REMARK  165  A    between atoms: _407  and  _410
REMARK  166  A    between atoms: _410  and  _411
REMARK  167  A    between atoms: _411  and  _412
REMARK  168  A    between atoms: _412  and  _413
REMARK  169  A    between atoms: _422  and  _424
REMARK  170  A    between atoms: _424  and  _425
REMARK  171  A    between atoms: _424  and  _427
REMARK  172  A    between atoms: _427  and  _428
REMARK  173  A    between atoms: _433  and  _435
REMARK  174  A    between atoms: _435  and  _436
REMARK  175  A    between atoms: _435  and  _438
REMARK  176  A    between atoms: _438  and  _439
REMARK  177  A    between atoms: _442  and  _444
REMARK  178  A    between atoms: _444  and  _445
REMARK  179  A    between atoms: _444  and  _447
REMARK  180  A    between atoms: _447  and  _448
REMARK  181  A    between atoms: _453  and  _454
REMARK  182  A    between atoms: _456  and  _458
REMARK  183  A    between atoms: _458  and  _459
REMARK  184  A    between atoms: _458  and  _461
REMARK  185  A    between atoms: _461  and  _462
REMARK  186  A    between atoms: _465  and  _467
REMARK  187  A    between atoms: _467  and  _468
REMARK  188  A    between atoms: _467  and  _470
REMARK  189  A    between atoms: _470  and  _471
REMARK  190  A    between atoms: _471  and  _472
REMARK  191  A    between atoms: _477  and  _479
REMARK  192  A    between atoms: _479  and  _480
REMARK  193  A    between atoms: _479  and  _482
REMARK  194  A    between atoms: _482  and  _483
REMARK  195  A    between atoms: _483  and  _484
REMARK  196  A    between atoms: _484  and  _485
REMARK  197  A    between atoms: _494  and  _496
REMARK  198  A    between atoms: _496  and  _497
REMARK  199  A    between atoms: _496  and  _499
REMARK  200  A    between atoms: _499  and  _500
REMARK  201  A    between atoms: _505  and  _506
REMARK  202  A    between atoms: _508  and  _510
REMARK  203  A    between atoms: _510  and  _511
REMARK  204  A    between atoms: _513  and  _515
REMARK  205  A    between atoms: _515  and  _516
REMARK  206  A    between atoms: _515  and  _518
REMARK  207  A    between atoms: _518  and  _519
REMARK  208  A    between atoms: _524  and  _526
REMARK  209  A    between atoms: _526  and  _527
REMARK  210  A    between atoms: _526  and  _529
REMARK  211  A    between atoms: _529  and  _530
REMARK  212  A    between atoms: _530  and  _531
REMARK  213  A    between atoms: _536  and  _538
REMARK  214  A    between atoms: _538  and  _539
REMARK  215  A    between atoms: _538  and  _541
REMARK  216  A    between atoms: _541  and  _542
REMARK  217  A    between atoms: _548  and  _550
REMARK  218  A    between atoms: _550  and  _551
REMARK  219  A    between atoms: _554  and  _556
REMARK  220  A    between atoms: _556  and  _557
REMARK  221  A    between atoms: _556  and  _559
REMARK  222  A    between atoms: _559  and  _560
REMARK  223  A    between atoms: _565  and  _566
REMARK  224  A    between atoms: _568  and  _570
REMARK  225  A    between atoms: _570  and  _571
REMARK  226  A    between atoms: _570  and  _573
REMARK  227  A    between atoms: _573  and  _574
REMARK  228  A    between atoms: _579  and  _580
REMARK  229  A    between atoms: _582  and  _584
REMARK  230  A    between atoms: _584  and  _585
REMARK  231  A    between atoms: _584  and  _587
REMARK  232  A    between atoms: _587  and  _588
REMARK  233  A    between atoms: _591  and  _593
REMARK  234  A    between atoms: _593  and  _594
REMARK  235  A    between atoms: _593  and  _596
REMARK  236  A    between atoms: _596  and  _597
REMARK  237  A    between atoms: _607  and  _609
REMARK  238  A    between atoms: _609  and  _610
REMARK  239  A    between atoms: _613  and  _615
REMARK  240  A    between atoms: _615  and  _616
REMARK  241  A    between atoms: _619  and  _621
REMARK  242  A    between atoms: _621  and  _622
REMARK  243  A    between atoms: _621  and  _624
REMARK  244  A    between atoms: _624  and  _625
REMARK  245  A    between atoms: _625  and  _626
REMARK  246  A    between atoms: _631  and  _633
REMARK  247  A    between atoms: _633  and  _634
REMARK  248  A    between atoms: _633  and  _636
REMARK  249  A    between atoms: _636  and  _637
REMARK  250  A    between atoms: _640  and  _642
REMARK  251  A    between atoms: _642  and  _643
REMARK  252  A    between atoms: _642  and  _645
REMARK  253  A    between atoms: _645  and  _646
REMARK  254  A    between atoms: _649  and  _651
REMARK  255  A    between atoms: _651  and  _652
REMARK  256  A    between atoms: _651  and  _654
REMARK  257  A    between atoms: _654  and  _655
REMARK  258  A    between atoms: _655  and  _656
REMARK  259  A    between atoms: _661  and  _663
REMARK  260  A    between atoms: _663  and  _664
REMARK  261  A    between atoms: _663  and  _666
REMARK  262  A    between atoms: _666  and  _667
REMARK  263  A    between atoms: _667  and  _668
REMARK  264  A    between atoms: _668  and  _669
REMARK  265  A    between atoms: _678  and  _680
REMARK  266  A    between atoms: _680  and  _681
REMARK  267  A    between atoms: _680  and  _683
REMARK  268  A    between atoms: _683  and  _684
REMARK  269  A    between atoms: _684  and  _685
REMARK  270  A    between atoms: _685  and  _686
REMARK  271  A    between atoms: _686  and  _687
REMARK  272  A    between atoms: _691  and  _693
REMARK  273  A    between atoms: _693  and  _694
REMARK  274  A    between atoms: _693  and  _696
REMARK  275  A    between atoms: _696  and  _697
REMARK  276  A    between atoms: _707  and  _709
REMARK  277  A    between atoms: _709  and  _710
REMARK  278  A    between atoms: _713  and  _715
REMARK  279  A    between atoms: _715  and  _716
REMARK  280  A    between atoms: _719  and  _721
REMARK  281  A    between atoms: _721  and  _722
REMARK  282  A    between atoms: _721  and  _724
REMARK  283  A    between atoms: _724  and  _725
REMARK  284  A    between atoms: _725  and  _726
REMARK  285  A    between atoms: _726  and  _727
REMARK  286  A    between atoms: _736  and  _738
REMARK  287  A    between atoms: _738  and  _739
REMARK  288  A    between atoms: _738  and  _741
REMARK  289  A    between atoms: _744  and  _746
REMARK  290  A    between atoms: _746  and  _747
REMARK  291  A    between atoms: _750  and  _752
REMARK  292  A    between atoms: _752  and  _753
REMARK  293  A    between atoms: _752  and  _755
REMARK  294  A    between atoms: _755  and  _756
REMARK  295  A    between atoms: _756  and  _757
REMARK  296  A    between atoms: _760  and  _762
REMARK  297  A    between atoms: _762  and  _763
REMARK  298  A    between atoms: _762  and  _765
REMARK  299  A    between atoms: _765  and  _766
REMARK  300  A    between atoms: _766  and  _767
REMARK  301  A    between atoms: _772  and  _774
REMARK  302  A    between atoms: _774  and  _775
REMARK  303  A    between atoms: _774  and  _777
REMARK  304  A    between atoms: _777  and  _778
REMARK  305  A    between atoms: _781  and  _783
REMARK  306  A    between atoms: _783  and  _784
REMARK  307  A    between atoms: _783  and  _786
REMARK  308  A    between atoms: _786  and  _787
REMARK  309  A    between atoms: _787  and  _788
REMARK  310  A    between atoms: _788  and  _789
REMARK  311  A    between atoms: _798  and  _800
REMARK  312  A    between atoms: _800  and  _801
REMARK  313  A    between atoms: _800  and  _803
REMARK  314  A    between atoms: _803  and  _804
REMARK  315  A    between atoms: _807  and  _809
REMARK  316  A    between atoms: _809  and  _810
REMARK  317  A    between atoms: _809  and  _812
REMARK  318  A    between atoms: _812  and  _813
REMARK  319  A    between atoms: _818  and  _819
REMARK  320  A    between atoms: _821  and  _823
REMARK  321  A    between atoms: _823  and  _824
REMARK  322  A    between atoms: _823  and  _826
REMARK  323  A    between atoms: _826  and  _827
REMARK  324  A    between atoms: _830  and  _832
REMARK  325  A    between atoms: _832  and  _833
REMARK  326  A    between atoms: _832  and  _835
REMARK  327  A    between atoms: _835  and  _836
REMARK  328  A    between atoms: _839  and  _841
REMARK  329  A    between atoms: _841  and  _842
REMARK  330  A    between atoms: _841  and  _844
REMARK  331  A    between atoms: _846  and  _848
REMARK  332  A    between atoms: _848  and  _849
REMARK  333  A    between atoms: _848  and  _851
REMARK  334  A    between atoms: _854  and  _856
REMARK  335  A    between atoms: _856  and  _857
REMARK  336  A    between atoms: _856  and  _859
REMARK  337  A    between atoms: _859  and  _860
REMARK  338  A    between atoms: _860  and  _861
REMARK  339  A    between atoms: _864  and  _866
REMARK  340  A    between atoms: _866  and  _867
REMARK  341  A    between atoms: _866  and  _869
REMARK  342  A    between atoms: _869  and  _870
REMARK  343  A    between atoms: _880  and  _882
REMARK  344  A    between atoms: _882  and  _883
REMARK  345  A    between atoms: _882  and  _885
REMARK  346  A    between atoms: _885  and  _886
REMARK  347  A    between atoms: _889  and  _891
REMARK  348  A    between atoms: _891  and  _892
REMARK  349  A    between atoms: _891  and  _894
REMARK  350  A    between atoms: _894  and  _895
REMARK  351  A    between atoms: _900  and  _901
REMARK                            x       y       z     vdW  Elec       q    Type
REMARK                         _______ _______ _______ _____ _____    ______ ____
ROOT
ATOM      1  O   HOH     1      -1.482   9.611  37.585  0.00  0.00    +0.000 OA
ENDROOT
TORSDOF 0
REMARK  Name = ../refined-set-2016/4o2c/4o2c_pocket.pdb
REMARK  351 active torsions:
REMARK  status: ('A' for Active; 'I' for Inactive)
REMARK    1  A    between atoms: _1  and  _3
REMARK    2  A    between atoms: _3  and  _4
REMARK    3  A    between atoms: _3  and  _6
REMARK    4  A    between atoms: _6  and  _7
REMARK    5  A    between atoms: _7  and  _8
REMARK    6  A    between atoms: _10  and  _12
REMARK    7  A    between atoms: _12  and  _13
REMARK    8  A    between atoms: _12  and  _15
REMARK    9  A    between atoms: _15  and  _16
REMARK   10  A    between atoms: _16  and  _17
REMARK   11  A    between atoms: _17  and  _18
REMARK   12  A    between atoms: _27  and  _29
REMARK   13  A    between atoms: _29  and  _30
REMARK   14  A    between atoms: _29  and  _32
REMARK   15  A    between atoms: _32  and  _33
REMARK   16  A    between atoms: _38  and  _39
REMARK   17  A    between atoms: _41  and  _43
REMARK   18  A    between atoms: _43  and  _44
REMARK   19  A    between atoms: _43  and  _46
REMARK   20  A    between atoms: _46  and  _47
REMARK   21  A    between atoms: _53  and  _55
REMARK   22  A    between atoms: _55  and  _56
REMARK   23  A    between atoms: _55  and  _58
REMARK   24  A    between atoms: _58  and  _59
REMARK   25  A    between atoms: _64  and  _65
REMARK   26  A    between atoms: _67  and  _69
REMARK   27  A    between atoms: _69  and  _70
REMARK   28  A    between atoms: _69  and  _72
REMARK   29  A    between atoms: _72  and  _73
REMARK   30  A    between atoms: _79  and  _81
REMARK   31  A    between atoms: _81  and  _82
REMARK   32  A    between atoms: _81  and  _84
REMARK   33  A    between atoms: _84  and  _85
REMARK   34  A    between atoms: _88  and  _90
REMARK   35  A    between atoms: _90  and  _91
REMARK   36  A    between atoms: _90  and  _93
REMARK   37  A    between atoms: _93  and  _94
REMARK   38  A    between atoms: _96  and  _98
REMARK   39  A    between atoms: _98  and  _99
REMARK   40  A    between atoms: _98  and  _101
REMARK   41  A    between atoms: _104  and  _106
REMARK   42  A    between atoms: _106  and  _107
REMARK   43  A    between atoms: _109  and  _111
REMARK   44  A    between atoms: _111  and  _112
REMARK   45  A    between atoms: _111  and  _114
REMARK   46  A    between atoms: _114  and  _115
REMARK   47  A    between atoms: _121  and  _123
REMARK   48  A    between atoms: _123  and  _124
REMARK   49  A    between atoms: _123  and  _126
REMARK   50  A    between atoms: _129  and  _131
REMARK   51  A    between atoms: _131  and  _132
REMARK   52  A    between atoms: _131  and  _134
REMARK   53  A    between atoms: _134  and  _135
REMARK   54  A    between atoms: _135  and  _136
REMARK   55  A    between atoms: _136  and  _137
REMARK   56  A    between atoms: _146  and  _148
REMARK   57  A    between atoms: _148  and  _149
REMARK   58  A    between atoms: _148  and  _151
REMARK   59  A    between atoms: _151  and  _152
REMARK   60  A    between atoms: _158  and  _160
REMARK   61  A    between atoms: _160  and  _161
REMARK   62  A    between atoms: _160  and  _163
REMARK   63  A    between atoms: _163  and  _164
REMARK   64  A    between atoms: _164  and  _165
REMARK   65  A    between atoms: _168  and  _170
REMARK   66  A    between atoms: _170  and  _171
REMARK   67  A    between atoms: _170  and  _173
REMARK   68  A    between atoms: _173  and  _174
REMARK   69  A    between atoms: _174  and  _175
REMARK   70  A    between atoms: _178  and  _180
REMARK   71  A    between atoms: _180  and  _181
REMARK   72  A    between atoms: _180  and  _183
REMARK   73  A    between atoms: _183  and  _184
REMARK   74  A    between atoms: _187  and  _189
REMARK   75  A    between atoms: _189  and  _190
REMARK   76  A    between atoms: _189  and  _192
REMARK   77  A    between atoms: _192  and  _193
REMARK   78  A    between atoms: _193  and  _194
REMARK   79  A    between atoms: _197  and  _199
REMARK   80  A    between atoms: _199  and  _200
REMARK   81  A    between atoms: _199  and  _202
REMARK   82  A    between atoms: _202  and  _203
REMARK   83  A    between atoms: _203  and  _204
REMARK   84  A    between atoms: _207  and  _209
REMARK   85  A    between atoms: _209  and  _210
REMARK   86  A    between atoms: _209  and  _212
REMARK   87  A    between atoms: _212  and  _213
REMARK   88  A    between atoms: _218  and  _219
REMARK   89  A    between atoms: _221  and  _223
REMARK   90  A    between atoms: _223  and  _224
REMARK   91  A    between atoms: _223  and  _226
REMARK   92  A    between atoms: _226  and  _227
REMARK   93  A    between atoms: _237  and  _239
REMARK   94  A    between atoms: _239  and  _240
REMARK   95  A    between atoms: _239  and  _242
REMARK   96  A    between atoms: _242  and  _243
REMARK   97  A    between atoms: _246  and  _248
REMARK   98  A    between atoms: _248  and  _249
REMARK   99  A    between atoms: _248  and  _251
REMARK  100  A    between atoms: _251  and  _252
REMARK  101  A    between atoms: _252  and  _253
REMARK  102  A    between atoms: _253  and  _254
REMARK  103  A    between atoms: _263  and  _265
REMARK  104  A    between atoms: _265  and  _266
REMARK  105  A    between atoms: _265  and  _268
REMARK  106  A    between atoms: _268  and  _269
REMARK  107  A    between atoms: _274  and  _276
REMARK  108  A    between atoms: _276  and  _277
REMARK  109  A    between atoms: _276  and  _279
REMARK  110  A    between atoms: _279  and  _280
REMARK  111  A    between atoms: _283  and  _285
REMARK  112  A    between atoms: _285  and  _286
REMARK  113  A    between atoms: _285  and  _288
REMARK  114  A    between atoms: _288  and  _289
REMARK  115  A    between atoms: _289  and  _290
REMARK  116  A    between atoms: _295  and  _297
REMARK  117  A    between atoms: _297  and  _298
REMARK  118  A    between atoms: _297  and  _300
REMARK  119  A    between atoms: _300  and  _301
REMARK  120  A    between atoms: _304  and  _306
REMARK  121  A    between atoms: _306  and  _307
REMARK  122  A    between atoms: _306  and  _309
REMARK  123  A    between atoms: _311  and  _313
REMARK  124  A    between atoms: _313  and  _314
REMARK  125  A    between atoms: _313  and  _316
REMARK  126  A    between atoms: _316  and  _317
REMARK  127  A    between atoms: _320  and  _322
REMARK  128  A    between atoms: _322  and  _323
REMARK  129  A    between atoms: _322  and  _325
REMARK  130  A    between atoms: _325  and  _326
REMARK  131  A    between atoms: _331  and  _333
REMARK  132  A    between atoms: _333  and  _334
REMARK  133  A    between atoms: _333  and  _336
REMARK  134  A    between atoms: _336  and  _337
REMARK  135  A    between atoms: _337  and  _338
REMARK  136  A    between atoms: _343  and  _345
REMARK  137  A    between atoms: _345  and  _346
REMARK  138  A    between atoms: _345  and  _348
REMARK  139  A    between atoms: _348  and  _349
REMARK  140  A    between atoms: _352  and  _354
REMARK  141  A    between atoms: _354  and  _355
REMARK  142  A    between atoms: _354  and  _357
REMARK  143  A    between atoms: _357  and  _358
REMARK  144  A    between atoms: _361  and  _363
REMARK  145  A    between atoms: _363  and  _364
REMARK  146  A    between atoms: _363  and  _366
REMARK  147  A    between atoms: _366  and  _367
REMARK  148  A    between atoms: _367  and  _368
REMARK  149  A    between atoms: _368  and  _369
REMARK  150  A    between atoms: _378  and  _380
REMARK  151  A    between atoms: _380  and  _381
REMARK  152  A    between atoms: _380  and  _383
REMARK  153  A    between atoms: _383  and  _384
REMARK  154  A    between atoms: _384  and  _385
REMARK  155  A    between atoms: _388  and  _390
REMARK  156  A    between atoms: _390  and  _391
REMARK  157  A    between atoms: _390  and  _393
REMARK  158  A    between atoms: _393  and  _394
REMARK  159  A    between atoms: _396  and  _398
REMARK  160  A    between atoms: _398  and  _399
REMARK  161  A    between atoms: _398  and  _401
REMARK  162  A    between atoms: _401  and  _402
REMARK  163  A    between atoms: _405  and  _407
REMARK  164  A    between atoms: _407  and  _408
REMARK  165  A    between atoms: _407  and  _410
REMARK  166  A    between atoms: _410  and  _411
REMARK  167  A    between atoms: _411  and  _412
REMARK  168  A    between atoms: _412  and  _413
REMARK  169  A    between atoms: _422  and  _424
REMARK  170  A    between atoms: _424  and  _425
REMARK  171  A    between atoms: _424  and  _427
REMARK  172  A    between atoms: _427  and  _428
REMARK  173  A    between atoms: _433  and  _435
REMARK  174  A    between atoms: _435  and  _436
REMARK  175  A    between atoms: _435  and  _438
REMARK  176  A    between atoms: _438  and  _439
REMARK  177  A    between atoms: _442  and  _444
REMARK  178  A    between atoms: _444  and  _445
REMARK  179  A    between atoms: _444  and  _447
REMARK  180  A    between atoms: _447  and  _448
REMARK  181  A    between atoms: _453  and  _454
REMARK  182  A    between atoms: _456  and  _458
REMARK  183  A    between atoms: _458  and  _459
REMARK  184  A    between atoms: _458  and  _461
REMARK  185  A    between atoms: _461  and  _462
REMARK  186  A    between atoms: _465  and  _467
REMARK  187  A    between atoms: _467  and  _468
REMARK  188  A    between atoms: _467  and  _470
REMARK  189  A    between atoms: _470  and  _471
REMARK  190  A    between atoms: _471  and  _472
REMARK  191  A    between atoms: _477  and  _479
REMARK  192  A    between atoms: _479  and  _480
REMARK  193  A    between atoms: _479  and  _482
REMARK  194  A    between atoms: _482  and  _483
REMARK  195  A    between atoms: _483  and  _484
REMARK  196  A    between atoms: _484  and  _485
REMARK  197  A    between atoms: _494  and  _496
REMARK  198  A    between atoms: _496  and  _497
REMARK  199  A    between atoms: _496  and  _499
REMARK  200  A    between atoms: _499  and  _500
REMARK  201  A    between atoms: _505  and  _506
REMARK  202  A    between atoms: _508  and  _510
REMARK  203  A    between atoms: _510  and  _511
REMARK  204  A    between atoms: _513  and  _515
REMARK  205  A    between atoms: _515  and  _516
REMARK  206  A    between atoms: _515  and  _518
REMARK  207  A    between atoms: _518  and  _519
REMARK  208  A    between atoms: _524  and  _526
REMARK  209  A    between atoms: _526  and  _527
REMARK  210  A    between atoms: _526  and  _529
REMARK  211  A    between atoms: _529  and  _530
REMARK  212  A    between atoms: _530  and  _531
REMARK  213  A    between atoms: _536  and  _538
REMARK  214  A    between atoms: _538  and  _539
REMARK  215  A    between atoms: _538  and  _541
REMARK  216  A    between atoms: _541  and  _542
REMARK  217  A    between atoms: _548  and  _550
REMARK  218  A    between atoms: _550  and  _551
REMARK  219  A    between atoms: _554  and  _556
REMARK  220  A    between atoms: _556  and  _557
REMARK  221  A    between atoms: _556  and  _559
REMARK  222  A    between atoms: _559  and  _560
REMARK  223  A    between atoms: _565  and  _566
REMARK  224  A    between atoms: _568  and  _570
REMARK  225  A    between atoms: _570  and  _571
REMARK  226  A    between atoms: _570  and  _573
REMARK  227  A    between atoms: _573  and  _574
REMARK  228  A    between atoms: _579  and  _580
REMARK  229  A    between atoms: _582  and  _584
REMARK  230  A    between atoms: _584  and  _585
REMARK  231  A    between atoms: _584  and  _587
REMARK  232  A    between atoms: _587  and  _588
REMARK  233  A    between atoms: _591  and  _593
REMARK  234  A    between atoms: _593  and  _594
REMARK  235  A    between atoms: _593  and  _596
REMARK  236  A    between atoms: _596  and  _597
REMARK  237  A    between atoms: _607  and  _609
REMARK  238  A    between atoms: _609  and  _610
REMARK  239  A    between atoms: _613  and  _615
REMARK  240  A    between atoms: _615  and  _616
REMARK  241  A    between atoms: _619  and  _621
REMARK  242  A    between atoms: _621  and  _622
REMARK  243  A    between atoms: _621  and  _624
REMARK  244  A    between atoms: _624  and  _625
REMARK  245  A    between atoms: _625  and  _626
REMARK  246  A    between atoms: _631  and  _633
REMARK  247  A    between atoms: _633  and  _634
REMARK  248  A    between atoms: _633  and  _636
REMARK  249  A    between atoms: _636  and  _637
REMARK  250  A    between atoms: _640  and  _642
REMARK  251  A    between atoms: _642  and  _643
REMARK  252  A    between atoms: _642  and  _645
REMARK  253  A    between atoms: _645  and  _646
REMARK  254  A    between atoms: _649  and  _651
REMARK  255  A    between atoms: _651  and  _652
REMARK  256  A    between atoms: _651  and  _654
REMARK  257  A    between atoms: _654  and  _655
REMARK  258  A    between atoms: _655  and  _656
REMARK  259  A    between atoms: _661  and  _663
REMARK  260  A    between atoms: _663  and  _664
REMARK  261  A    between atoms: _663  and  _666
REMARK  262  A    between atoms: _666  and  _667
REMARK  263  A    between atoms: _667  and  _668
REMARK  264  A    between atoms: _668  and  _669
REMARK  265  A    between atoms: _678  and  _680
REMARK  266  A    between atoms: _680  and  _681
REMARK  267  A    between atoms: _680  and  _683
REMARK  268  A    between atoms: _683  and  _684
REMARK  269  A    between atoms: _684  and  _685
REMARK  270  A    between atoms: _685  and  _686
REMARK  271  A    between atoms: _686  and  _687
REMARK  272  A    between atoms: _691  and  _693
REMARK  273  A    between atoms: _693  and  _694
REMARK  274  A    between atoms: _693  and  _696
REMARK  275  A    between atoms: _696  and  _697
REMARK  276  A    between atoms: _707  and  _709
REMARK  277  A    between atoms: _709  and  _710
REMARK  278  A    between atoms: _713  and  _715
REMARK  279  A    between atoms: _715  and  _716
REMARK  280  A    between atoms: _719  and  _721
REMARK  281  A    between atoms: _721  and  _722
REMARK  282  A    between atoms: _721  and  _724
REMARK  283  A    between atoms: _724  and  _725
REMARK  284  A    between atoms: _725  and  _726
REMARK  285  A    between atoms: _726  and  _727
REMARK  286  A    between atoms: _736  and  _738
REMARK  287  A    between atoms: _738  and  _739
REMARK  288  A    between atoms: _738  and  _741
REMARK  289  A    between atoms: _744  and  _746
REMARK  290  A    between atoms: _746  and  _747
REMARK  291  A    between atoms: _750  and  _752
REMARK  292  A    between atoms: _752  and  _753
REMARK  293  A    between atoms: _752  and  _755
REMARK  294  A    between atoms: _755  and  _756
REMARK  295  A    between atoms: _756  and  _757
REMARK  296  A    between atoms: _760  and  _762
REMARK  297  A    between atoms: _762  and  _763
REMARK  298  A    between atoms: _762  and  _765
REMARK  299  A    between atoms: _765  and  _766
REMARK  300  A    between atoms: _766  and  _767
REMARK  301  A    between atoms: _772  and  _774
REMARK  302  A    between atoms: _774  and  _775
REMARK  303  A    between atoms: _774  and  _777
REMARK  304  A    between atoms: _777  and  _778
REMARK  305  A    between atoms: _781  and  _783
REMARK  306  A    between atoms: _783  and  _784
REMARK  307  A    between atoms: _783  and  _786
REMARK  308  A    between atoms: _786  and  _787
REMARK  309  A    between atoms: _787  and  _788
REMARK  310  A    between atoms: _788  and  _789
REMARK  311  A    between atoms: _798  and  _800
REMARK  312  A    between atoms: _800  and  _801
REMARK  313  A    between atoms: _800  and  _803
REMARK  314  A    between atoms: _803  and  _804
REMARK  315  A    between atoms: _807  and  _809
REMARK  316  A    between atoms: _809  and  _810
REMARK  317  A    between atoms: _809  and  _812
REMARK  318  A    between atoms: _812  and  _813
REMARK  319  A    between atoms: _818  and  _819
REMARK  320  A    between atoms: _821  and  _823
REMARK  321  A    between atoms: _823  and  _824
REMARK  322  A    between atoms: _823  and  _826
REMARK  323  A    between atoms: _826  and  _827
REMARK  324  A    between atoms: _830  and  _832
REMARK  325  A    between atoms: _832  and  _833
REMARK  326  A    between atoms: _832  and  _835
REMARK  327  A    between atoms: _835  and  _836
REMARK  328  A    between atoms: _839  and  _841
REMARK  329  A    between atoms: _841  and  _842
REMARK  330  A    between atoms: _841  and  _844
REMARK  331  A    between atoms: _846  and  _848
REMARK  332  A    between atoms: _848  and  _849
REMARK  333  A    between atoms: _848  and  _851
REMARK  334  A    between atoms: _854  and  _856
REMARK  335  A    between atoms: _856  and  _857
REMARK  336  A    between atoms: _856  and  _859
REMARK  337  A    between atoms: _859  and  _860
REMARK  338  A    between atoms: _860  and  _861
REMARK  339  A    between atoms: _864  and  _866
REMARK  340  A    between atoms: _866  and  _867
REMARK  341  A    between atoms: _866  and  _869
REMARK  342  A    between atoms: _869  and  _870
REMARK  343  A    between atoms: _880  and  _882
REMARK  344  A    between atoms: _882  and  _883
REMARK  345  A    between atoms: _882  and  _885
REMARK  346  A    between atoms: _885  and  _886
REMARK  347  A    between atoms: _889  and  _891
REMARK  348  A    between atoms: _891  and  _892
REMARK  349  A    between atoms: _891  and  _894
REMARK  350  A    between atoms: _894  and  _895
REMARK  351  A    between atoms: _900  and  _901
REMARK                            x       y       z     vdW  Elec       q    Type
REMARK                         _______ _______ _______ _____ _____    ______ ____
ROOT
ATOM      1  O   HOH     1       0.516  24.064  42.417  0.00  0.00    +0.000 OA
ENDROOT
TORSDOF 0
REMARK  Name = ../refined-set-2016/4o2c/4o2c_pocket.pdb
REMARK  351 active torsions:
REMARK  status: ('A' for Active; 'I' for Inactive)
REMARK    1  A    between atoms: _1  and  _3
REMARK    2  A    between atoms: _3  and  _4
REMARK    3  A    between atoms: _3  and  _6
REMARK    4  A    between atoms: _6  and  _7
REMARK    5  A    between atoms: _7  and  _8
REMARK    6  A    between atoms: _10  and  _12
REMARK    7  A    between atoms: _12  and  _13
REMARK    8  A    between atoms: _12  and  _15
REMARK    9  A    between atoms: _15  and  _16
REMARK   10  A    between atoms: _16  and  _17
REMARK   11  A    between atoms: _17  and  _18
REMARK   12  A    between atoms: _27  and  _29
REMARK   13  A    between atoms: _29  and  _30
REMARK   14  A    between atoms: _29  and  _32
REMARK   15  A    between atoms: _32  and  _33
REMARK   16  A    between atoms: _38  and  _39
REMARK   17  A    between atoms: _41  and  _43
REMARK   18  A    between atoms: _43  and  _44
REMARK   19  A    between atoms: _43  and  _46
REMARK   20  A    between atoms: _46  and  _47
REMARK   21  A    between atoms: _53  and  _55
REMARK   22  A    between atoms: _55  and  _56
REMARK   23  A    between atoms: _55  and  _58
REMARK   24  A    between atoms: _58  and  _59
REMARK   25  A    between atoms: _64  and  _65
REMARK   26  A    between atoms: _67  and  _69
REMARK   27  A    between atoms: _69  and  _70
REMARK   28  A    between atoms: _69  and  _72
REMARK   29  A    between atoms: _72  and  _73
REMARK   30  A    between atoms: _79  and  _81
REMARK   31  A    between atoms: _81  and  _82
REMARK   32  A    between atoms: _81  and  _84
REMARK   33  A    between atoms: _84  and  _85
REMARK   34  A    between atoms: _88  and  _90
REMARK   35  A    between atoms: _90  and  _91
REMARK   36  A    between atoms: _90  and  _93
REMARK   37  A    between atoms: _93  and  _94
REMARK   38  A    between atoms: _96  and  _98
REMARK   39  A    between atoms: _98  and  _99
REMARK   40  A    between atoms: _98  and  _101
REMARK   41  A    between atoms: _104  and  _106
REMARK   42  A    between atoms: _106  and  _107
REMARK   43  A    between atoms: _109  and  _111
REMARK   44  A    between atoms: _111  and  _112
REMARK   45  A    between atoms: _111  and  _114
REMARK   46  A    between atoms: _114  and  _115
REMARK   47  A    between atoms: _121  and  _123
REMARK   48  A    between atoms: _123  and  _124
REMARK   49  A    between atoms: _123  and  _126
REMARK   50  A    between atoms: _129  and  _131
REMARK   51  A    between atoms: _131  and  _132
REMARK   52  A    between atoms: _131  and  _134
REMARK   53  A    between atoms: _134  and  _135
REMARK   54  A    between atoms: _135  and  _136
REMARK   55  A    between atoms: _136  and  _137
REMARK   56  A    between atoms: _146  and  _148
REMARK   57  A    between atoms: _148  and  _149
REMARK   58  A    between atoms: _148  and  _151
REMARK   59  A    between atoms: _151  and  _152
REMARK   60  A    between atoms: _158  and  _160
REMARK   61  A    between atoms: _160  and  _161
REMARK   62  A    between atoms: _160  and  _163
REMARK   63  A    between atoms: _163  and  _164
REMARK   64  A    between atoms: _164  and  _165
REMARK   65  A    between atoms: _168  and  _170
REMARK   66  A    between atoms: _170  and  _171
REMARK   67  A    between atoms: _170  and  _173
REMARK   68  A    between atoms: _173  and  _174
REMARK   69  A    between atoms: _174  and  _175
REMARK   70  A    between atoms: _178  and  _180
REMARK   71  A    between atoms: _180  and  _181
REMARK   72  A    between atoms: _180  and  _183
REMARK   73  A    between atoms: _183  and  _184
REMARK   74  A    between atoms: _187  and  _189
REMARK   75  A    between atoms: _189  and  _190
REMARK   76  A    between atoms: _189  and  _192
REMARK   77  A    between atoms: _192  and  _193
REMARK   78  A    between atoms: _193  and  _194
REMARK   79  A    between atoms: _197  and  _199
REMARK   80  A    between atoms: _199  and  _200
REMARK   81  A    between atoms: _199  and  _202
REMARK   82  A    between atoms: _202  and  _203
REMARK   83  A    between atoms: _203  and  _204
REMARK   84  A    between atoms: _207  and  _209
REMARK   85  A    between atoms: _209  and  _210
REMARK   86  A    between atoms: _209  and  _212
REMARK   87  A    between atoms: _212  and  _213
REMARK   88  A    between atoms: _218  and  _219
REMARK   89  A    between atoms: _221  and  _223
REMARK   90  A    between atoms: _223  and  _224
REMARK   91  A    between atoms: _223  and  _226
REMARK   92  A    between atoms: _226  and  _227
REMARK   93  A    between atoms: _237  and  _239
REMARK   94  A    between atoms: _239  and  _240
REMARK   95  A    between atoms: _239  and  _242
REMARK   96  A    between atoms: _242  and  _243
REMARK   97  A    between atoms: _246  and  _248
REMARK   98  A    between atoms: _248  and  _249
REMARK   99  A    between atoms: _248  and  _251
REMARK  100  A    between atoms: _251  and  _252
REMARK  101  A    between atoms: _252  and  _253
REMARK  102  A    between atoms: _253  and  _254
REMARK  103  A    between atoms: _263  and  _265
REMARK  104  A    between atoms: _265  and  _266
REMARK  105  A    between atoms: _265  and  _268
REMARK  106  A    between atoms: _268  and  _269
REMARK  107  A    between atoms: _274  and  _276
REMARK  108  A    between atoms: _276  and  _277
REMARK  109  A    between atoms: _276  and  _279
REMARK  110  A    between atoms: _279  and  _280
REMARK  111  A    between atoms: _283  and  _285
REMARK  112  A    between atoms: _285  and  _286
REMARK  113  A    between atoms: _285  and  _288
REMARK  114  A    between atoms: _288  and  _289
REMARK  115  A    between atoms: _289  and  _290
REMARK  116  A    between atoms: _295  and  _297
REMARK  117  A    between atoms: _297  and  _298
REMARK  118  A    between atoms: _297  and  _300
REMARK  119  A    between atoms: _300  and  _301
REMARK  120  A    between atoms: _304  and  _306
REMARK  121  A    between atoms: _306  and  _307
REMARK  122  A    between atoms: _306  and  _309
REMARK  123  A    between atoms: _311  and  _313
REMARK  124  A    between atoms: _313  and  _314
REMARK  125  A    between atoms: _313  and  _316
REMARK  126  A    between atoms: _316  and  _317
REMARK  127  A    between atoms: _320  and  _322
REMARK  128  A    between atoms: _322  and  _323
REMARK  129  A    between atoms: _322  and  _325
REMARK  130  A    between atoms: _325  and  _326
REMARK  131  A    between atoms: _331  and  _333
REMARK  132  A    between atoms: _333  and  _334
REMARK  133  A    between atoms: _333  and  _336
REMARK  134  A    between atoms: _336  and  _337
REMARK  135  A    between atoms: _337  and  _338
REMARK  136  A    between atoms: _343  and  _345
REMARK  137  A    between atoms: _345  and  _346
REMARK  138  A    between atoms: _345  and  _348
REMARK  139  A    between atoms: _348  and  _349
REMARK  140  A    between atoms: _352  and  _354
REMARK  141  A    between atoms: _354  and  _355
REMARK  142  A    between atoms: _354  and  _357
REMARK  143  A    between atoms: _357  and  _358
REMARK  144  A    between atoms: _361  and  _363
REMARK  145  A    between atoms: _363  and  _364
REMARK  146  A    between atoms: _363  and  _366
REMARK  147  A    between atoms: _366  and  _367
REMARK  148  A    between atoms: _367  and  _368
REMARK  149  A    between atoms: _368  and  _369
REMARK  150  A    between atoms: _378  and  _380
REMARK  151  A    between atoms: _380  and  _381
REMARK  152  A    between atoms: _380  and  _383
REMARK  153  A    between atoms: _383  and  _384
REMARK  154  A    between atoms: _384  and  _385
REMARK  155  A    between atoms: _388  and  _390
REMARK  156  A    between atoms: _390  and  _391
REMARK  157  A    between atoms: _390  and  _393
REMARK  158  A    between atoms: _393  and  _394
REMARK  159  A    between atoms: _396  and  _398
REMARK  160  A    between atoms: _398  and  _399
REMARK  161  A    between atoms: _398  and  _401
REMARK  162  A    between atoms: _401  and  _402
REMARK  163  A    between atoms: _405  and  _407
REMARK  164  A    between atoms: _407  and  _408
REMARK  165  A    between atoms: _407  and  _410
REMARK  166  A    between atoms: _410  and  _411
REMARK  167  A    between atoms: _411  and  _412
REMARK  168  A    between atoms: _412  and  _413
REMARK  169  A    between atoms: _422  and  _424
REMARK  170  A    between atoms: _424  and  _425
REMARK  171  A    between atoms: _424  and  _427
REMARK  172  A    between atoms: _427  and  _428
REMARK  173  A    between atoms: _433  and  _435
REMARK  174  A    between atoms: _435  and  _436
REMARK  175  A    between atoms: _435  and  _438
REMARK  176  A    between atoms: _438  and  _439
REMARK  177  A    between atoms: _442  and  _444
REMARK  178  A    between atoms: _444  and  _445
REMARK  179  A    between atoms: _444  and  _447
REMARK  180  A    between atoms: _447  and  _448
REMARK  181  A    between atoms: _453  and  _454
REMARK  182  A    between atoms: _456  and  _458
REMARK  183  A    between atoms: _458  and  _459
REMARK  184  A    between atoms: _458  and  _461
REMARK  185  A    between atoms: _461  and  _462
REMARK  186  A    between atoms: _465  and  _467
REMARK  187  A    between atoms: _467  and  _468
REMARK  188  A    between atoms: _467  and  _470
REMARK  189  A    between atoms: _470  and  _471
REMARK  190  A    between atoms: _471  and  _472
REMARK  191  A    between atoms: _477  and  _479
REMARK  192  A    between atoms: _479  and  _480
REMARK  193  A    between atoms: _479  and  _482
REMARK  194  A    between atoms: _482  and  _483
REMARK  195  A    between atoms: _483  and  _484
REMARK  196  A    between atoms: _484  and  _485
REMARK  197  A    between atoms: _494  and  _496
REMARK  198  A    between atoms: _496  and  _497
REMARK  199  A    between atoms: _496  and  _499
REMARK  200  A    between atoms: _499  and  _500
REMARK  201  A    between atoms: _505  and  _506
REMARK  202  A    between atoms: _508  and  _510
REMARK  203  A    between atoms: _510  and  _511
REMARK  204  A    between atoms: _513  and  _515
REMARK  205  A    between atoms: _515  and  _516
REMARK  206  A    between atoms: _515  and  _518
REMARK  207  A    between atoms: _518  and  _519
REMARK  208  A    between atoms: _524  and  _526
REMARK  209  A    between atoms: _526  and  _527
REMARK  210  A    between atoms: _526  and  _529
REMARK  211  A    between atoms: _529  and  _530
REMARK  212  A    between atoms: _530  and  _531
REMARK  213  A    between atoms: _536  and  _538
REMARK  214  A    between atoms: _538  and  _539
REMARK  215  A    between atoms: _538  and  _541
REMARK  216  A    between atoms: _541  and  _542
REMARK  217  A    between atoms: _548  and  _550
REMARK  218  A    between atoms: _550  and  _551
REMARK  219  A    between atoms: _554  and  _556
REMARK  220  A    between atoms: _556  and  _557
REMARK  221  A    between atoms: _556  and  _559
REMARK  222  A    between atoms: _559  and  _560
REMARK  223  A    between atoms: _565  and  _566
REMARK  224  A    between atoms: _568  and  _570
REMARK  225  A    between atoms: _570  and  _571
REMARK  226  A    between atoms: _570  and  _573
REMARK  227  A    between atoms: _573  and  _574
REMARK  228  A    between atoms: _579  and  _580
REMARK  229  A    between atoms: _582  and  _584
REMARK  230  A    between atoms: _584  and  _585
REMARK  231  A    between atoms: _584  and  _587
REMARK  232  A    between atoms: _587  and  _588
REMARK  233  A    between atoms: _591  and  _593
REMARK  234  A    between atoms: _593  and  _594
REMARK  235  A    between atoms: _593  and  _596
REMARK  236  A    between atoms: _596  and  _597
REMARK  237  A    between atoms: _607  and  _609
REMARK  238  A    between atoms: _609  and  _610
REMARK  239  A    between atoms: _613  and  _615
REMARK  240  A    between atoms: _615  and  _616
REMARK  241  A    between atoms: _619  and  _621
REMARK  242  A    between atoms: _621  and  _622
REMARK  243  A    between atoms: _621  and  _624
REMARK  244  A    between atoms: _624  and  _625
REMARK  245  A    between atoms: _625  and  _626
REMARK  246  A    between atoms: _631  and  _633
REMARK  247  A    between atoms: _633  and  _634
REMARK  248  A    between atoms: _633  and  _636
REMARK  249  A    between atoms: _636  and  _637
REMARK  250  A    between atoms: _640  and  _642
REMARK  251  A    between atoms: _642  and  _643
REMARK  252  A    between atoms: _642  and  _645
REMARK  253  A    between atoms: _645  and  _646
REMARK  254  A    between atoms: _649  and  _651
REMARK  255  A    between atoms: _651  and  _652
REMARK  256  A    between atoms: _651  and  _654
REMARK  257  A    between atoms: _654  and  _655
REMARK  258  A    between atoms: _655  and  _656
REMARK  259  A    between atoms: _661  and  _663
REMARK  260  A    between atoms: _663  and  _664
REMARK  261  A    between atoms: _663  and  _666
REMARK  262  A    between atoms: _666  and  _667
REMARK  263  A    between atoms: _667  and  _668
REMARK  264  A    between atoms: _668  and  _669
REMARK  265  A    between atoms: _678  and  _680
REMARK  266  A    between atoms: _680  and  _681
REMARK  267  A    between atoms: _680  and  _683
REMARK  268  A    between atoms: _683  and  _684
REMARK  269  A    between atoms: _684  and  _685
REMARK  270  A    between atoms: _685  and  _686
REMARK  271  A    between atoms: _686  and  _687
REMARK  272  A    between atoms: _691  and  _693
REMARK  273  A    between atoms: _693  and  _694
REMARK  274  A    between atoms: _693  and  _696
REMARK  275  A    between atoms: _696  and  _697
REMARK  276  A    between atoms: _707  and  _709
REMARK  277  A    between atoms: _709  and  _710
REMARK  278  A    between atoms: _713  and  _715
REMARK  279  A    between atoms: _715  and  _716
REMARK  280  A    between atoms: _719  and  _721
REMARK  281  A    between atoms: _721  and  _722
REMARK  282  A    between atoms: _721  and  _724
REMARK  283  A    between atoms: _724  and  _725
REMARK  284  A    between atoms: _725  and  _726
REMARK  285  A    between atoms: _726  and  _727
REMARK  286  A    between atoms: _736  and  _738
REMARK  287  A    between atoms: _738  and  _739
REMARK  288  A    between atoms: _738  and  _741
REMARK  289  A    between atoms: _744  and  _746
REMARK  290  A    between atoms: _746  and  _747
REMARK  291  A    between atoms: _750  and  _752
REMARK  292  A    between atoms: _752  and  _753
REMARK  293  A    between atoms: _752  and  _755
REMARK  294  A    between atoms: _755  and  _756
REMARK  295  A    between atoms: _756  and  _757
REMARK  296  A    between atoms: _760  and  _762
REMARK  297  A    between atoms: _762  and  _763
REMARK  298  A    between atoms: _762  and  _765
REMARK  299  A    between atoms: _765  and  _766
REMARK  300  A    between atoms: _766  and  _767
REMARK  301  A    between atoms: _772  and  _774
REMARK  302  A    between atoms: _774  and  _775
REMARK  303  A    between atoms: _774  and  _777
REMARK  304  A    between atoms: _777  and  _778
REMARK  305  A    between atoms: _781  and  _783
REMARK  306  A    between atoms: _783  and  _784
REMARK  307  A    between atoms: _783  and  _786
REMARK  308  A    between atoms: _786  and  _787
REMARK  309  A    between atoms: _787  and  _788
REMARK  310  A    between atoms: _788  and  _789
REMARK  311  A    between atoms: _798  and  _800
REMARK  312  A    between atoms: _800  and  _801
REMARK  313  A    between atoms: _800  and  _803
REMARK  314  A    between atoms: _803  and  _804
REMARK  315  A    between atoms: _807  and  _809
REMARK  316  A    between atoms: _809  and  _810
REMARK  317  A    between atoms: _809  and  _812
REMARK  318  A    between atoms: _812  and  _813
REMARK  319  A    between atoms: _818  and  _819
REMARK  320  A    between atoms: _821  and  _823
REMARK  321  A    between atoms: _823  and  _824
REMARK  322  A    between atoms: _823  and  _826
REMARK  323  A    between atoms: _826  and  _827
REMARK  324  A    between atoms: _830  and  _832
REMARK  325  A    between atoms: _832  and  _833
REMARK  326  A    between atoms: _832  and  _835
REMARK  327  A    between atoms: _835  and  _836
REMARK  328  A    between atoms: _839  and  _841
REMARK  329  A    between atoms: _841  and  _842
REMARK  330  A    between atoms: _841  and  _844
REMARK  331  A    between atoms: _846  and  _848
REMARK  332  A    between atoms: _848  and  _849
REMARK  333  A    between atoms: _848  and  _851
REMARK  334  A    between atoms: _854  and  _856
REMARK  335  A    between atoms: _856  and  _857
REMARK  336  A    between atoms: _856  and  _859
REMARK  337  A    between atoms: _859  and  _860
REMARK  338  A    between atoms: _860  and  _861
REMARK  339  A    between atoms: _864  and  _866
REMARK  340  A    between atoms: _866  and  _867
REMARK  341  A    between atoms: _866  and  _869
REMARK  342  A    between atoms: _869  and  _870
REMARK  343  A    between atoms: _880  and  _882
REMARK  344  A    between atoms: _882  and  _883
REMARK  345  A    between atoms: _882  and  _885
REMARK  346  A    between atoms: _885  and  _886
REMARK  347  A    between atoms: _889  and  _891
REMARK  348  A    between atoms: _891  and  _892
REMARK  349  A    between atoms: _891  and  _894
REMARK  350  A    between atoms: _894  and  _895
REMARK  351  A    between atoms: _900  and  _901
REMARK                            x       y       z     vdW  Elec       q    Type
REMARK                         _______ _______ _______ _____ _____    ______ ____
ROOT
ATOM      1  O   HOH     1      -0.053  19.106  42.889  0.00  0.00    +0.000 OA
ENDROOT
TORSDOF 0
REMARK  Name = ../refined-set-2016/4o2c/4o2c_pocket.pdb
REMARK  351 active torsions:
REMARK  status: ('A' for Active; 'I' for Inactive)
REMARK    1  A    between atoms: _1  and  _3
REMARK    2  A    between atoms: _3  and  _4
REMARK    3  A    between atoms: _3  and  _6
REMARK    4  A    between atoms: _6  and  _7
REMARK    5  A    between atoms: _7  and  _8
REMARK    6  A    between atoms: _10  and  _12
REMARK    7  A    between atoms: _12  and  _13
REMARK    8  A    between atoms: _12  and  _15
REMARK    9  A    between atoms: _15  and  _16
REMARK   10  A    between atoms: _16  and  _17
REMARK   11  A    between atoms: _17  and  _18
REMARK   12  A    between atoms: _27  and  _29
REMARK   13  A    between atoms: _29  and  _30
REMARK   14  A    between atoms: _29  and  _32
REMARK   15  A    between atoms: _32  and  _33
REMARK   16  A    between atoms: _38  and  _39
REMARK   17  A    between atoms: _41  and  _43
REMARK   18  A    between atoms: _43  and  _44
REMARK   19  A    between atoms: _43  and  _46
REMARK   20  A    between atoms: _46  and  _47
REMARK   21  A    between atoms: _53  and  _55
REMARK   22  A    between atoms: _55  and  _56
REMARK   23  A    between atoms: _55  and  _58
REMARK   24  A    between atoms: _58  and  _59
REMARK   25  A    between atoms: _64  and  _65
REMARK   26  A    between atoms: _67  and  _69
REMARK   27  A    between atoms: _69  and  _70
REMARK   28  A    between atoms: _69  and  _72
REMARK   29  A    between atoms: _72  and  _73
REMARK   30  A    between atoms: _79  and  _81
REMARK   31  A    between atoms: _81  and  _82
REMARK   32  A    between atoms: _81  and  _84
REMARK   33  A    between atoms: _84  and  _85
REMARK   34  A    between atoms: _88  and  _90
REMARK   35  A    between atoms: _90  and  _91
REMARK   36  A    between atoms: _90  and  _93
REMARK   37  A    between atoms: _93  and  _94
REMARK   38  A    between atoms: _96  and  _98
REMARK   39  A    between atoms: _98  and  _99
REMARK   40  A    between atoms: _98  and  _101
REMARK   41  A    between atoms: _104  and  _106
REMARK   42  A    between atoms: _106  and  _107
REMARK   43  A    between atoms: _109  and  _111
REMARK   44  A    between atoms: _111  and  _112
REMARK   45  A    between atoms: _111  and  _114
REMARK   46  A    between atoms: _114  and  _115
REMARK   47  A    between atoms: _121  and  _123
REMARK   48  A    between atoms: _123  and  _124
REMARK   49  A    between atoms: _123  and  _126
REMARK   50  A    between atoms: _129  and  _131
REMARK   51  A    between atoms: _131  and  _132
REMARK   52  A    between atoms: _131  and  _134
REMARK   53  A    between atoms: _134  and  _135
REMARK   54  A    between atoms: _135  and  _136
REMARK   55  A    between atoms: _136  and  _137
REMARK   56  A    between atoms: _146  and  _148
REMARK   57  A    between atoms: _148  and  _149
REMARK   58  A    between atoms: _148  and  _151
REMARK   59  A    between atoms: _151  and  _152
REMARK   60  A    between atoms: _158  and  _160
REMARK   61  A    between atoms: _160  and  _161
REMARK   62  A    between atoms: _160  and  _163
REMARK   63  A    between atoms: _163  and  _164
REMARK   64  A    between atoms: _164  and  _165
REMARK   65  A    between atoms: _168  and  _170
REMARK   66  A    between atoms: _170  and  _171
REMARK   67  A    between atoms: _170  and  _173
REMARK   68  A    between atoms: _173  and  _174
REMARK   69  A    between atoms: _174  and  _175
REMARK   70  A    between atoms: _178  and  _180
REMARK   71  A    between atoms: _180  and  _181
REMARK   72  A    between atoms: _180  and  _183
REMARK   73  A    between atoms: _183  and  _184
REMARK   74  A    between atoms: _187  and  _189
REMARK   75  A    between atoms: _189  and  _190
REMARK   76  A    between atoms: _189  and  _192
REMARK   77  A    between atoms: _192  and  _193
REMARK   78  A    between atoms: _193  and  _194
REMARK   79  A    between atoms: _197  and  _199
REMARK   80  A    between atoms: _199  and  _200
REMARK   81  A    between atoms: _199  and  _202
REMARK   82  A    between atoms: _202  and  _203
REMARK   83  A    between atoms: _203  and  _204
REMARK   84  A    between atoms: _207  and  _209
REMARK   85  A    between atoms: _209  and  _210
REMARK   86  A    between atoms: _209  and  _212
REMARK   87  A    between atoms: _212  and  _213
REMARK   88  A    between atoms: _218  and  _219
REMARK   89  A    between atoms: _221  and  _223
REMARK   90  A    between atoms: _223  and  _224
REMARK   91  A    between atoms: _223  and  _226
REMARK   92  A    between atoms: _226  and  _227
REMARK   93  A    between atoms: _237  and  _239
REMARK   94  A    between atoms: _239  and  _240
REMARK   95  A    between atoms: _239  and  _242
REMARK   96  A    between atoms: _242  and  _243
REMARK   97  A    between atoms: _246  and  _248
REMARK   98  A    between atoms: _248  and  _249
REMARK   99  A    between atoms: _248  and  _251
REMARK  100  A    between atoms: _251  and  _252
REMARK  101  A    between atoms: _252  and  _253
REMARK  102  A    between atoms: _253  and  _254
REMARK  103  A    between atoms: _263  and  _265
REMARK  104  A    between atoms: _265  and  _266
REMARK  105  A    between atoms: _265  and  _268
REMARK  106  A    between atoms: _268  and  _269
REMARK  107  A    between atoms: _274  and  _276
REMARK  108  A    between atoms: _276  and  _277
REMARK  109  A    between atoms: _276  and  _279
REMARK  110  A    between atoms: _279  and  _280
REMARK  111  A    between atoms: _283  and  _285
REMARK  112  A    between atoms: _285  and  _286
REMARK  113  A    between atoms: _285  and  _288
REMARK  114  A    between atoms: _288  and  _289
REMARK  115  A    between atoms: _289  and  _290
REMARK  116  A    between atoms: _295  and  _297
REMARK  117  A    between atoms: _297  and  _298
REMARK  118  A    between atoms: _297  and  _300
REMARK  119  A    between atoms: _300  and  _301
REMARK  120  A    between atoms: _304  and  _306
REMARK  121  A    between atoms: _306  and  _307
REMARK  122  A    between atoms: _306  and  _309
REMARK  123  A    between atoms: _311  and  _313
REMARK  124  A    between atoms: _313  and  _314
REMARK  125  A    between atoms: _313  and  _316
REMARK  126  A    between atoms: _316  and  _317
REMARK  127  A    between atoms: _320  and  _322
REMARK  128  A    between atoms: _322  and  _323
REMARK  129  A    between atoms: _322  and  _325
REMARK  130  A    between atoms: _325  and  _326
REMARK  131  A    between atoms: _331  and  _333
REMARK  132  A    between atoms: _333  and  _334
REMARK  133  A    between atoms: _333  and  _336
REMARK  134  A    between atoms: _336  and  _337
REMARK  135  A    between atoms: _337  and  _338
REMARK  136  A    between atoms: _343  and  _345
REMARK  137  A    between atoms: _345  and  _346
REMARK  138  A    between atoms: _345  and  _348
REMARK  139  A    between atoms: _348  and  _349
REMARK  140  A    between atoms: _352  and  _354
REMARK  141  A    between atoms: _354  and  _355
REMARK  142  A    between atoms: _354  and  _357
REMARK  143  A    between atoms: _357  and  _358
REMARK  144  A    between atoms: _361  and  _363
REMARK  145  A    between atoms: _363  and  _364
REMARK  146  A    between atoms: _363  and  _366
REMARK  147  A    between atoms: _366  and  _367
REMARK  148  A    between atoms: _367  and  _368
REMARK  149  A    between atoms: _368  and  _369
REMARK  150  A    between atoms: _378  and  _380
REMARK  151  A    between atoms: _380  and  _381
REMARK  152  A    between atoms: _380  and  _383
REMARK  153  A    between atoms: _383  and  _384
REMARK  154  A    between atoms: _384  and  _385
REMARK  155  A    between atoms: _388  and  _390
REMARK  156  A    between atoms: _390  and  _391
REMARK  157  A    between atoms: _390  and  _393
REMARK  158  A    between atoms: _393  and  _394
REMARK  159  A    between atoms: _396  and  _398
REMARK  160  A    between atoms: _398  and  _399
REMARK  161  A    between atoms: _398  and  _401
REMARK  162  A    between atoms: _401  and  _402
REMARK  163  A    between atoms: _405  and  _407
REMARK  164  A    between atoms: _407  and  _408
REMARK  165  A    between atoms: _407  and  _410
REMARK  166  A    between atoms: _410  and  _411
REMARK  167  A    between atoms: _411  and  _412
REMARK  168  A    between atoms: _412  and  _413
REMARK  169  A    between atoms: _422  and  _424
REMARK  170  A    between atoms: _424  and  _425
REMARK  171  A    between atoms: _424  and  _427
REMARK  172  A    between atoms: _427  and  _428
REMARK  173  A    between atoms: _433  and  _435
REMARK  174  A    between atoms: _435  and  _436
REMARK  175  A    between atoms: _435  and  _438
REMARK  176  A    between atoms: _438  and  _439
REMARK  177  A    between atoms: _442  and  _444
REMARK  178  A    between atoms: _444  and  _445
REMARK  179  A    between atoms: _444  and  _447
REMARK  180  A    between atoms: _447  and  _448
REMARK  181  A    between atoms: _453  and  _454
REMARK  182  A    between atoms: _456  and  _458
REMARK  183  A    between atoms: _458  and  _459
REMARK  184  A    between atoms: _458  and  _461
REMARK  185  A    between atoms: _461  and  _462
REMARK  186  A    between atoms: _465  and  _467
REMARK  187  A    between atoms: _467  and  _468
REMARK  188  A    between atoms: _467  and  _470
REMARK  189  A    between atoms: _470  and  _471
REMARK  190  A    between atoms: _471  and  _472
REMARK  191  A    between atoms: _477  and  _479
REMARK  192  A    between atoms: _479  and  _480
REMARK  193  A    between atoms: _479  and  _482
REMARK  194  A    between atoms: _482  and  _483
REMARK  195  A    between atoms: _483  and  _484
REMARK  196  A    between atoms: _484  and  _485
REMARK  197  A    between atoms: _494  and  _496
REMARK  198  A    between atoms: _496  and  _497
REMARK  199  A    between atoms: _496  and  _499
REMARK  200  A    between atoms: _499  and  _500
REMARK  201  A    between atoms: _505  and  _506
REMARK  202  A    between atoms: _508  and  _510
REMARK  203  A    between atoms: _510  and  _511
REMARK  204  A    between atoms: _513  and  _515
REMARK  205  A    between atoms: _515  and  _516
REMARK  206  A    between atoms: _515  and  _518
REMARK  207  A    between atoms: _518  and  _519
REMARK  208  A    between atoms: _524  and  _526
REMARK  209  A    between atoms: _526  and  _527
REMARK  210  A    between atoms: _526  and  _529
REMARK  211  A    between atoms: _529  and  _530
REMARK  212  A    between atoms: _530  and  _531
REMARK  213  A    between atoms: _536  and  _538
REMARK  214  A    between atoms: _538  and  _539
REMARK  215  A    between atoms: _538  and  _541
REMARK  216  A    between atoms: _541  and  _542
REMARK  217  A    between atoms: _548  and  _550
REMARK  218  A    between atoms: _550  and  _551
REMARK  219  A    between atoms: _554  and  _556
REMARK  220  A    between atoms: _556  and  _557
REMARK  221  A    between atoms: _556  and  _559
REMARK  222  A    between atoms: _559  and  _560
REMARK  223  A    between atoms: _565  and  _566
REMARK  224  A    between atoms: _568  and  _570
REMARK  225  A    between atoms: _570  and  _571
REMARK  226  A    between atoms: _570  and  _573
REMARK  227  A    between atoms: _573  and  _574
REMARK  228  A    between atoms: _579  and  _580
REMARK  229  A    between atoms: _582  and  _584
REMARK  230  A    between atoms: _584  and  _585
REMARK  231  A    between atoms: _584  and  _587
REMARK  232  A    between atoms: _587  and  _588
REMARK  233  A    between atoms: _591  and  _593
REMARK  234  A    between atoms: _593  and  _594
REMARK  235  A    between atoms: _593  and  _596
REMARK  236  A    between atoms: _596  and  _597
REMARK  237  A    between atoms: _607  and  _609
REMARK  238  A    between atoms: _609  and  _610
REMARK  239  A    between atoms: _613  and  _615
REMARK  240  A    between atoms: _615  and  _616
REMARK  241  A    between atoms: _619  and  _621
REMARK  242  A    between atoms: _621  and  _622
REMARK  243  A    between atoms: _621  and  _624
REMARK  244  A    between atoms: _624  and  _625
REMARK  245  A    between atoms: _625  and  _626
REMARK  246  A    between atoms: _631  and  _633
REMARK  247  A    between atoms: _633  and  _634
REMARK  248  A    between atoms: _633  and  _636
REMARK  249  A    between atoms: _636  and  _637
REMARK  250  A    between atoms: _640  and  _642
REMARK  251  A    between atoms: _642  and  _643
REMARK  252  A    between atoms: _642  and  _645
REMARK  253  A    between atoms: _645  and  _646
REMARK  254  A    between atoms: _649  and  _651
REMARK  255  A    between atoms: _651  and  _652
REMARK  256  A    between atoms: _651  and  _654
REMARK  257  A    between atoms: _654  and  _655
REMARK  258  A    between atoms: _655  and  _656
REMARK  259  A    between atoms: _661  and  _663
REMARK  260  A    between atoms: _663  and  _664
REMARK  261  A    between atoms: _663  and  _666
REMARK  262  A    between atoms: _666  and  _667
REMARK  263  A    between atoms: _667  and  _668
REMARK  264  A    between atoms: _668  and  _669
REMARK  265  A    between atoms: _678  and  _680
REMARK  266  A    between atoms: _680  and  _681
REMARK  267  A    between atoms: _680  and  _683
REMARK  268  A    between atoms: _683  and  _684
REMARK  269  A    between atoms: _684  and  _685
REMARK  270  A    between atoms: _685  and  _686
REMARK  271  A    between atoms: _686  and  _687
REMARK  272  A    between atoms: _691  and  _693
REMARK  273  A    between atoms: _693  and  _694
REMARK  274  A    between atoms: _693  and  _696
REMARK  275  A    between atoms: _696  and  _697
REMARK  276  A    between atoms: _707  and  _709
REMARK  277  A    between atoms: _709  and  _710
REMARK  278  A    between atoms: _713  and  _715
REMARK  279  A    between atoms: _715  and  _716
REMARK  280  A    between atoms: _719  and  _721
REMARK  281  A    between atoms: _721  and  _722
REMARK  282  A    between atoms: _721  and  _724
REMARK  283  A    between atoms: _724  and  _725
REMARK  284  A    between atoms: _725  and  _726
REMARK  285  A    between atoms: _726  and  _727
REMARK  286  A    between atoms: _736  and  _738
REMARK  287  A    between atoms: _738  and  _739
REMARK  288  A    between atoms: _738  and  _741
REMARK  289  A    between atoms: _744  and  _746
REMARK  290  A    between atoms: _746  and  _747
REMARK  291  A    between atoms: _750  and  _752
REMARK  292  A    between atoms: _752  and  _753
REMARK  293  A    between atoms: _752  and  _755
REMARK  294  A    between atoms: _755  and  _756
REMARK  295  A    between atoms: _756  and  _757
REMARK  296  A    between atoms: _760  and  _762
REMARK  297  A    between atoms: _762  and  _763
REMARK  298  A    between atoms: _762  and  _765
REMARK  299  A    between atoms: _765  and  _766
REMARK  300  A    between atoms: _766  and  _767
REMARK  301  A    between atoms: _772  and  _774
REMARK  302  A    between atoms: _774  and  _775
REMARK  303  A    between atoms: _774  and  _777
REMARK  304  A    between atoms: _777  and  _778
REMARK  305  A    between atoms: _781  and  _783
REMARK  306  A    between atoms: _783  and  _784
REMARK  307  A    between atoms: _783  and  _786
REMARK  308  A    between atoms: _786  and  _787
REMARK  309  A    between atoms: _787  and  _788
REMARK  310  A    between atoms: _788  and  _789
REMARK  311  A    between atoms: _798  and  _800
REMARK  312  A    between atoms: _800  and  _801
REMARK  313  A    between atoms: _800  and  _803
REMARK  314  A    between atoms: _803  and  _804
REMARK  315  A    between atoms: _807  and  _809
REMARK  316  A    between atoms: _809  and  _810
REMARK  317  A    between atoms: _809  and  _812
REMARK  318  A    between atoms: _812  and  _813
REMARK  319  A    between atoms: _818  and  _819
REMARK  320  A    between atoms: _821  and  _823
REMARK  321  A    between atoms: _823  and  _824
REMARK  322  A    between atoms: _823  and  _826
REMARK  323  A    between atoms: _826  and  _827
REMARK  324  A    between atoms: _830  and  _832
REMARK  325  A    between atoms: _832  and  _833
REMARK  326  A    between atoms: _832  and  _835
REMARK  327  A    between atoms: _835  and  _836
REMARK  328  A    between atoms: _839  and  _841
REMARK  329  A    between atoms: _841  and  _842
REMARK  330  A    between atoms: _841  and  _844
REMARK  331  A    between atoms: _846  and  _848
REMARK  332  A    between atoms: _848  and  _849
REMARK  333  A    between atoms: _848  and  _851
REMARK  334  A    between atoms: _854  and  _856
REMARK  335  A    between atoms: _856  and  _857
REMARK  336  A    between atoms: _856  and  _859
REMARK  337  A    between atoms: _859  and  _860
REMARK  338  A    between atoms: _860  and  _861
REMARK  339  A    between atoms: _864  and  _866
REMARK  340  A    between atoms: _866  and  _867
REMARK  341  A    between atoms: _866  and  _869
REMARK  342  A    between atoms: _869  and  _870
REMARK  343  A    between atoms: _880  and  _882
REMARK  344  A    between atoms: _882  and  _883
REMARK  345  A    between atoms: _882  and  _885
REMARK  346  A    between atoms: _885  and  _886
REMARK  347  A    between atoms: _889  and  _891
REMARK  348  A    between atoms: _891  and  _892
REMARK  349  A    between atoms: _891  and  _894
REMARK  350  A    between atoms: _894  and  _895
REMARK  351  A    between atoms: _900  and  _901
REMARK                            x       y       z     vdW  Elec       q    Type
REMARK                         _______ _______ _______ _____ _____    ______ ____
ROOT
ATOM      1  O   HOH     1      13.021  18.810  42.472  0.00  0.00    +0.000 OA
ENDROOT
TORSDOF 0
REMARK  Name = ../refined-set-2016/4o2c/4o2c_pocket.pdb
REMARK  351 active torsions:
REMARK  status: ('A' for Active; 'I' for Inactive)
REMARK    1  A    between atoms: _1  and  _3
REMARK    2  A    between atoms: _3  and  _4
REMARK    3  A    between atoms: _3  and  _6
REMARK    4  A    between atoms: _6  and  _7
REMARK    5  A    between atoms: _7  and  _8
REMARK    6  A    between atoms: _10  and  _12
REMARK    7  A    between atoms: _12  and  _13
REMARK    8  A    between atoms: _12  and  _15
REMARK    9  A    between atoms: _15  and  _16
REMARK   10  A    between atoms: _16  and  _17
REMARK   11  A    between atoms: _17  and  _18
REMARK   12  A    between atoms: _27  and  _29
REMARK   13  A    between atoms: _29  and  _30
REMARK   14  A    between atoms: _29  and  _32
REMARK   15  A    between atoms: _32  and  _33
REMARK   16  A    between atoms: _38  and  _39
REMARK   17  A    between atoms: _41  and  _43
REMARK   18  A    between atoms: _43  and  _44
REMARK   19  A    between atoms: _43  and  _46
REMARK   20  A    between atoms: _46  and  _47
REMARK   21  A    between atoms: _53  and  _55
REMARK   22  A    between atoms: _55  and  _56
REMARK   23  A    between atoms: _55  and  _58
REMARK   24  A    between atoms: _58  and  _59
REMARK   25  A    between atoms: _64  and  _65
REMARK   26  A    between atoms: _67  and  _69
REMARK   27  A    between atoms: _69  and  _70
REMARK   28  A    between atoms: _69  and  _72
REMARK   29  A    between atoms: _72  and  _73
REMARK   30  A    between atoms: _79  and  _81
REMARK   31  A    between atoms: _81  and  _82
REMARK   32  A    between atoms: _81  and  _84
REMARK   33  A    between atoms: _84  and  _85
REMARK   34  A    between atoms: _88  and  _90
REMARK   35  A    between atoms: _90  and  _91
REMARK   36  A    between atoms: _90  and  _93
REMARK   37  A    between atoms: _93  and  _94
REMARK   38  A    between atoms: _96  and  _98
REMARK   39  A    between atoms: _98  and  _99
REMARK   40  A    between atoms: _98  and  _101
REMARK   41  A    between atoms: _104  and  _106
REMARK   42  A    between atoms: _106  and  _107
REMARK   43  A    between atoms: _109  and  _111
REMARK   44  A    between atoms: _111  and  _112
REMARK   45  A    between atoms: _111  and  _114
REMARK   46  A    between atoms: _114  and  _115
REMARK   47  A    between atoms: _121  and  _123
REMARK   48  A    between atoms: _123  and  _124
REMARK   49  A    between atoms: _123  and  _126
REMARK   50  A    between atoms: _129  and  _131
REMARK   51  A    between atoms: _131  and  _132
REMARK   52  A    between atoms: _131  and  _134
REMARK   53  A    between atoms: _134  and  _135
REMARK   54  A    between atoms: _135  and  _136
REMARK   55  A    between atoms: _136  and  _137
REMARK   56  A    between atoms: _146  and  _148
REMARK   57  A    between atoms: _148  and  _149
REMARK   58  A    between atoms: _148  and  _151
REMARK   59  A    between atoms: _151  and  _152
REMARK   60  A    between atoms: _158  and  _160
REMARK   61  A    between atoms: _160  and  _161
REMARK   62  A    between atoms: _160  and  _163
REMARK   63  A    between atoms: _163  and  _164
REMARK   64  A    between atoms: _164  and  _165
REMARK   65  A    between atoms: _168  and  _170
REMARK   66  A    between atoms: _170  and  _171
REMARK   67  A    between atoms: _170  and  _173
REMARK   68  A    between atoms: _173  and  _174
REMARK   69  A    between atoms: _174  and  _175
REMARK   70  A    between atoms: _178  and  _180
REMARK   71  A    between atoms: _180  and  _181
REMARK   72  A    between atoms: _180  and  _183
REMARK   73  A    between atoms: _183  and  _184
REMARK   74  A    between atoms: _187  and  _189
REMARK   75  A    between atoms: _189  and  _190
REMARK   76  A    between atoms: _189  and  _192
REMARK   77  A    between atoms: _192  and  _193
REMARK   78  A    between atoms: _193  and  _194
REMARK   79  A    between atoms: _197  and  _199
REMARK   80  A    between atoms: _199  and  _200
REMARK   81  A    between atoms: _199  and  _202
REMARK   82  A    between atoms: _202  and  _203
REMARK   83  A    between atoms: _203  and  _204
REMARK   84  A    between atoms: _207  and  _209
REMARK   85  A    between atoms: _209  and  _210
REMARK   86  A    between atoms: _209  and  _212
REMARK   87  A    between atoms: _212  and  _213
REMARK   88  A    between atoms: _218  and  _219
REMARK   89  A    between atoms: _221  and  _223
REMARK   90  A    between atoms: _223  and  _224
REMARK   91  A    between atoms: _223  and  _226
REMARK   92  A    between atoms: _226  and  _227
REMARK   93  A    between atoms: _237  and  _239
REMARK   94  A    between atoms: _239  and  _240
REMARK   95  A    between atoms: _239  and  _242
REMARK   96  A    between atoms: _242  and  _243
REMARK   97  A    between atoms: _246  and  _248
REMARK   98  A    between atoms: _248  and  _249
REMARK   99  A    between atoms: _248  and  _251
REMARK  100  A    between atoms: _251  and  _252
REMARK  101  A    between atoms: _252  and  _253
REMARK  102  A    between atoms: _253  and  _254
REMARK  103  A    between atoms: _263  and  _265
REMARK  104  A    between atoms: _265  and  _266
REMARK  105  A    between atoms: _265  and  _268
REMARK  106  A    between atoms: _268  and  _269
REMARK  107  A    between atoms: _274  and  _276
REMARK  108  A    between atoms: _276  and  _277
REMARK  109  A    between atoms: _276  and  _279
REMARK  110  A    between atoms: _279  and  _280
REMARK  111  A    between atoms: _283  and  _285
REMARK  112  A    between atoms: _285  and  _286
REMARK  113  A    between atoms: _285  and  _288
REMARK  114  A    between atoms: _288  and  _289
REMARK  115  A    between atoms: _289  and  _290
REMARK  116  A    between atoms: _295  and  _297
REMARK  117  A    between atoms: _297  and  _298
REMARK  118  A    between atoms: _297  and  _300
REMARK  119  A    between atoms: _300  and  _301
REMARK  120  A    between atoms: _304  and  _306
REMARK  121  A    between atoms: _306  and  _307
REMARK  122  A    between atoms: _306  and  _309
REMARK  123  A    between atoms: _311  and  _313
REMARK  124  A    between atoms: _313  and  _314
REMARK  125  A    between atoms: _313  and  _316
REMARK  126  A    between atoms: _316  and  _317
REMARK  127  A    between atoms: _320  and  _322
REMARK  128  A    between atoms: _322  and  _323
REMARK  129  A    between atoms: _322  and  _325
REMARK  130  A    between atoms: _325  and  _326
REMARK  131  A    between atoms: _331  and  _333
REMARK  132  A    between atoms: _333  and  _334
REMARK  133  A    between atoms: _333  and  _336
REMARK  134  A    between atoms: _336  and  _337
REMARK  135  A    between atoms: _337  and  _338
REMARK  136  A    between atoms: _343  and  _345
REMARK  137  A    between atoms: _345  and  _346
REMARK  138  A    between atoms: _345  and  _348
REMARK  139  A    between atoms: _348  and  _349
REMARK  140  A    between atoms: _352  and  _354
REMARK  141  A    between atoms: _354  and  _355
REMARK  142  A    between atoms: _354  and  _357
REMARK  143  A    between atoms: _357  and  _358
REMARK  144  A    between atoms: _361  and  _363
REMARK  145  A    between atoms: _363  and  _364
REMARK  146  A    between atoms: _363  and  _366
REMARK  147  A    between atoms: _366  and  _367
REMARK  148  A    between atoms: _367  and  _368
REMARK  149  A    between atoms: _368  and  _369
REMARK  150  A    between atoms: _378  and  _380
REMARK  151  A    between atoms: _380  and  _381
REMARK  152  A    between atoms: _380  and  _383
REMARK  153  A    between atoms: _383  and  _384
REMARK  154  A    between atoms: _384  and  _385
REMARK  155  A    between atoms: _388  and  _390
REMARK  156  A    between atoms: _390  and  _391
REMARK  157  A    between atoms: _390  and  _393
REMARK  158  A    between atoms: _393  and  _394
REMARK  159  A    between atoms: _396  and  _398
REMARK  160  A    between atoms: _398  and  _399
REMARK  161  A    between atoms: _398  and  _401
REMARK  162  A    between atoms: _401  and  _402
REMARK  163  A    between atoms: _405  and  _407
REMARK  164  A    between atoms: _407  and  _408
REMARK  165  A    between atoms: _407  and  _410
REMARK  166  A    between atoms: _410  and  _411
REMARK  167  A    between atoms: _411  and  _412
REMARK  168  A    between atoms: _412  and  _413
REMARK  169  A    between atoms: _422  and  _424
REMARK  170  A    between atoms: _424  and  _425
REMARK  171  A    between atoms: _424  and  _427
REMARK  172  A    between atoms: _427  and  _428
REMARK  173  A    between atoms: _433  and  _435
REMARK  174  A    between atoms: _435  and  _436
REMARK  175  A    between atoms: _435  and  _438
REMARK  176  A    between atoms: _438  and  _439
REMARK  177  A    between atoms: _442  and  _444
REMARK  178  A    between atoms: _444  and  _445
REMARK  179  A    between atoms: _444  and  _447
REMARK  180  A    between atoms: _447  and  _448
REMARK  181  A    between atoms: _453  and  _454
REMARK  182  A    between atoms: _456  and  _458
REMARK  183  A    between atoms: _458  and  _459
REMARK  184  A    between atoms: _458  and  _461
REMARK  185  A    between atoms: _461  and  _462
REMARK  186  A    between atoms: _465  and  _467
REMARK  187  A    between atoms: _467  and  _468
REMARK  188  A    between atoms: _467  and  _470
REMARK  189  A    between atoms: _470  and  _471
REMARK  190  A    between atoms: _471  and  _472
REMARK  191  A    between atoms: _477  and  _479
REMARK  192  A    between atoms: _479  and  _480
REMARK  193  A    between atoms: _479  and  _482
REMARK  194  A    between atoms: _482  and  _483
REMARK  195  A    between atoms: _483  and  _484
REMARK  196  A    between atoms: _484  and  _485
REMARK  197  A    between atoms: _494  and  _496
REMARK  198  A    between atoms: _496  and  _497
REMARK  199  A    between atoms: _496  and  _499
REMARK  200  A    between atoms: _499  and  _500
REMARK  201  A    between atoms: _505  and  _506
REMARK  202  A    between atoms: _508  and  _510
REMARK  203  A    between atoms: _510  and  _511
REMARK  204  A    between atoms: _513  and  _515
REMARK  205  A    between atoms: _515  and  _516
REMARK  206  A    between atoms: _515  and  _518
REMARK  207  A    between atoms: _518  and  _519
REMARK  208  A    between atoms: _524  and  _526
REMARK  209  A    between atoms: _526  and  _527
REMARK  210  A    between atoms: _526  and  _529
REMARK  211  A    between atoms: _529  and  _530
REMARK  212  A    between atoms: _530  and  _531
REMARK  213  A    between atoms: _536  and  _538
REMARK  214  A    between atoms: _538  and  _539
REMARK  215  A    between atoms: _538  and  _541
REMARK  216  A    between atoms: _541  and  _542
REMARK  217  A    between atoms: _548  and  _550
REMARK  218  A    between atoms: _550  and  _551
REMARK  219  A    between atoms: _554  and  _556
REMARK  220  A    between atoms: _556  and  _557
REMARK  221  A    between atoms: _556  and  _559
REMARK  222  A    between atoms: _559  and  _560
REMARK  223  A    between atoms: _565  and  _566
REMARK  224  A    between atoms: _568  and  _570
REMARK  225  A    between atoms: _570  and  _571
REMARK  226  A    between atoms: _570  and  _573
REMARK  227  A    between atoms: _573  and  _574
REMARK  228  A    between atoms: _579  and  _580
REMARK  229  A    between atoms: _582  and  _584
REMARK  230  A    between atoms: _584  and  _585
REMARK  231  A    between atoms: _584  and  _587
REMARK  232  A    between atoms: _587  and  _588
REMARK  233  A    between atoms: _591  and  _593
REMARK  234  A    between atoms: _593  and  _594
REMARK  235  A    between atoms: _593  and  _596
REMARK  236  A    between atoms: _596  and  _597
REMARK  237  A    between atoms: _607  and  _609
REMARK  238  A    between atoms: _609  and  _610
REMARK  239  A    between atoms: _613  and  _615
REMARK  240  A    between atoms: _615  and  _616
REMARK  241  A    between atoms: _619  and  _621
REMARK  242  A    between atoms: _621  and  _622
REMARK  243  A    between atoms: _621  and  _624
REMARK  244  A    between atoms: _624  and  _625
REMARK  245  A    between atoms: _625  and  _626
REMARK  246  A    between atoms: _631  and  _633
REMARK  247  A    between atoms: _633  and  _634
REMARK  248  A    between atoms: _633  and  _636
REMARK  249  A    between atoms: _636  and  _637
REMARK  250  A    between atoms: _640  and  _642
REMARK  251  A    between atoms: _642  and  _643
REMARK  252  A    between atoms: _642  and  _645
REMARK  253  A    between atoms: _645  and  _646
REMARK  254  A    between atoms: _649  and  _651
REMARK  255  A    between atoms: _651  and  _652
REMARK  256  A    between atoms: _651  and  _654
REMARK  257  A    between atoms: _654  and  _655
REMARK  258  A    between atoms: _655  and  _656
REMARK  259  A    between atoms: _661  and  _663
REMARK  260  A    between atoms: _663  and  _664
REMARK  261  A    between atoms: _663  and  _666
REMARK  262  A    between atoms: _666  and  _667
REMARK  263  A    between atoms: _667  and  _668
REMARK  264  A    between atoms: _668  and  _669
REMARK  265  A    between atoms: _678  and  _680
REMARK  266  A    between atoms: _680  and  _681
REMARK  267  A    between atoms: _680  and  _683
REMARK  268  A    between atoms: _683  and  _684
REMARK  269  A    between atoms: _684  and  _685
REMARK  270  A    between atoms: _685  and  _686
REMARK  271  A    between atoms: _686  and  _687
REMARK  272  A    between atoms: _691  and  _693
REMARK  273  A    between atoms: _693  and  _694
REMARK  274  A    between atoms: _693  and  _696
REMARK  275  A    between atoms: _696  and  _697
REMARK  276  A    between atoms: _707  and  _709
REMARK  277  A    between atoms: _709  and  _710
REMARK  278  A    between atoms: _713  and  _715
REMARK  279  A    between atoms: _715  and  _716
REMARK  280  A    between atoms: _719  and  _721
REMARK  281  A    between atoms: _721  and  _722
REMARK  282  A    between atoms: _721  and  _724
REMARK  283  A    between atoms: _724  and  _725
REMARK  284  A    between atoms: _725  and  _726
REMARK  285  A    between atoms: _726  and  _727
REMARK  286  A    between atoms: _736  and  _738
REMARK  287  A    between atoms: _738  and  _739
REMARK  288  A    between atoms: _738  and  _741
REMARK  289  A    between atoms: _744  and  _746
REMARK  290  A    between atoms: _746  and  _747
REMARK  291  A    between atoms: _750  and  _752
REMARK  292  A    between atoms: _752  and  _753
REMARK  293  A    between atoms: _752  and  _755
REMARK  294  A    between atoms: _755  and  _756
REMARK  295  A    between atoms: _756  and  _757
REMARK  296  A    between atoms: _760  and  _762
REMARK  297  A    between atoms: _762  and  _763
REMARK  298  A    between atoms: _762  and  _765
REMARK  299  A    between atoms: _765  and  _766
REMARK  300  A    between atoms: _766  and  _767
REMARK  301  A    between atoms: _772  and  _774
REMARK  302  A    between atoms: _774  and  _775
REMARK  303  A    between atoms: _774  and  _777
REMARK  304  A    between atoms: _777  and  _778
REMARK  305  A    between atoms: _781  and  _783
REMARK  306  A    between atoms: _783  and  _784
REMARK  307  A    between atoms: _783  and  _786
REMARK  308  A    between atoms: _786  and  _787
REMARK  309  A    between atoms: _787  and  _788
REMARK  310  A    between atoms: _788  and  _789
REMARK  311  A    between atoms: _798  and  _800
REMARK  312  A    between atoms: _800  and  _801
REMARK  313  A    between atoms: _800  and  _803
REMARK  314  A    between atoms: _803  and  _804
REMARK  315  A    between atoms: _807  and  _809
REMARK  316  A    between atoms: _809  and  _810
REMARK  317  A    between atoms: _809  and  _812
REMARK  318  A    between atoms: _812  and  _813
REMARK  319  A    between atoms: _818  and  _819
REMARK  320  A    between atoms: _821  and  _823
REMARK  321  A    between atoms: _823  and  _824
REMARK  322  A    between atoms: _823  and  _826
REMARK  323  A    between atoms: _826  and  _827
REMARK  324  A    between atoms: _830  and  _832
REMARK  325  A    between atoms: _832  and  _833
REMARK  326  A    between atoms: _832  and  _835
REMARK  327  A    between atoms: _835  and  _836
REMARK  328  A    between atoms: _839  and  _841
REMARK  329  A    between atoms: _841  and  _842
REMARK  330  A    between atoms: _841  and  _844
REMARK  331  A    between atoms: _846  and  _848
REMARK  332  A    between atoms: _848  and  _849
REMARK  333  A    between atoms: _848  and  _851
REMARK  334  A    between atoms: _854  and  _856
REMARK  335  A    between atoms: _856  and  _857
REMARK  336  A    between atoms: _856  and  _859
REMARK  337  A    between atoms: _859  and  _860
REMARK  338  A    between atoms: _860  and  _861
REMARK  339  A    between atoms: _864  and  _866
REMARK  340  A    between atoms: _866  and  _867
REMARK  341  A    between atoms: _866  and  _869
REMARK  342  A    between atoms: _869  and  _870
REMARK  343  A    between atoms: _880  and  _882
REMARK  344  A    between atoms: _882  and  _883
REMARK  345  A    between atoms: _882  and  _885
REMARK  346  A    between atoms: _885  and  _886
REMARK  347  A    between atoms: _889  and  _891
REMARK  348  A    between atoms: _891  and  _892
REMARK  349  A    between atoms: _891  and  _894
REMARK  350  A    between atoms: _894  and  _895
REMARK  351  A    between atoms: _900  and  _901
REMARK                            x       y       z     vdW  Elec       q    Type
REMARK                         _______ _______ _______ _____ _____    ______ ____
ROOT
ATOM      1  O   HOH     1      -0.780   1.957  41.784  0.00  0.00    +0.000 OA
ENDROOT
TORSDOF 0
REMARK  Name = ../refined-set-2016/4o2c/4o2c_pocket.pdb
REMARK  351 active torsions:
REMARK  status: ('A' for Active; 'I' for Inactive)
REMARK    1  A    between atoms: _1  and  _3
REMARK    2  A    between atoms: _3  and  _4
REMARK    3  A    between atoms: _3  and  _6
REMARK    4  A    between atoms: _6  and  _7
REMARK    5  A    between atoms: _7  and  _8
REMARK    6  A    between atoms: _10  and  _12
REMARK    7  A    between atoms: _12  and  _13
REMARK    8  A    between atoms: _12  and  _15
REMARK    9  A    between atoms: _15  and  _16
REMARK   10  A    between atoms: _16  and  _17
REMARK   11  A    between atoms: _17  and  _18
REMARK   12  A    between atoms: _27  and  _29
REMARK   13  A    between atoms: _29  and  _30
REMARK   14  A    between atoms: _29  and  _32
REMARK   15  A    between atoms: _32  and  _33
REMARK   16  A    between atoms: _38  and  _39
REMARK   17  A    between atoms: _41  and  _43
REMARK   18  A    between atoms: _43  and  _44
REMARK   19  A    between atoms: _43  and  _46
REMARK   20  A    between atoms: _46  and  _47
REMARK   21  A    between atoms: _53  and  _55
REMARK   22  A    between atoms: _55  and  _56
REMARK   23  A    between atoms: _55  and  _58
REMARK   24  A    between atoms: _58  and  _59
REMARK   25  A    between atoms: _64  and  _65
REMARK   26  A    between atoms: _67  and  _69
REMARK   27  A    between atoms: _69  and  _70
REMARK   28  A    between atoms: _69  and  _72
REMARK   29  A    between atoms: _72  and  _73
REMARK   30  A    between atoms: _79  and  _81
REMARK   31  A    between atoms: _81  and  _82
REMARK   32  A    between atoms: _81  and  _84
REMARK   33  A    between atoms: _84  and  _85
REMARK   34  A    between atoms: _88  and  _90
REMARK   35  A    between atoms: _90  and  _91
REMARK   36  A    between atoms: _90  and  _93
REMARK   37  A    between atoms: _93  and  _94
REMARK   38  A    between atoms: _96  and  _98
REMARK   39  A    between atoms: _98  and  _99
REMARK   40  A    between atoms: _98  and  _101
REMARK   41  A    between atoms: _104  and  _106
REMARK   42  A    between atoms: _106  and  _107
REMARK   43  A    between atoms: _109  and  _111
REMARK   44  A    between atoms: _111  and  _112
REMARK   45  A    between atoms: _111  and  _114
REMARK   46  A    between atoms: _114  and  _115
REMARK   47  A    between atoms: _121  and  _123
REMARK   48  A    between atoms: _123  and  _124
REMARK   49  A    between atoms: _123  and  _126
REMARK   50  A    between atoms: _129  and  _131
REMARK   51  A    between atoms: _131  and  _132
REMARK   52  A    between atoms: _131  and  _134
REMARK   53  A    between atoms: _134  and  _135
REMARK   54  A    between atoms: _135  and  _136
REMARK   55  A    between atoms: _136  and  _137
REMARK   56  A    between atoms: _146  and  _148
REMARK   57  A    between atoms: _148  and  _149
REMARK   58  A    between atoms: _148  and  _151
REMARK   59  A    between atoms: _151  and  _152
REMARK   60  A    between atoms: _158  and  _160
REMARK   61  A    between atoms: _160  and  _161
REMARK   62  A    between atoms: _160  and  _163
REMARK   63  A    between atoms: _163  and  _164
REMARK   64  A    between atoms: _164  and  _165
REMARK   65  A    between atoms: _168  and  _170
REMARK   66  A    between atoms: _170  and  _171
REMARK   67  A    between atoms: _170  and  _173
REMARK   68  A    between atoms: _173  and  _174
REMARK   69  A    between atoms: _174  and  _175
REMARK   70  A    between atoms: _178  and  _180
REMARK   71  A    between atoms: _180  and  _181
REMARK   72  A    between atoms: _180  and  _183
REMARK   73  A    between atoms: _183  and  _184
REMARK   74  A    between atoms: _187  and  _189
REMARK   75  A    between atoms: _189  and  _190
REMARK   76  A    between atoms: _189  and  _192
REMARK   77  A    between atoms: _192  and  _193
REMARK   78  A    between atoms: _193  and  _194
REMARK   79  A    between atoms: _197  and  _199
REMARK   80  A    between atoms: _199  and  _200
REMARK   81  A    between atoms: _199  and  _202
REMARK   82  A    between atoms: _202  and  _203
REMARK   83  A    between atoms: _203  and  _204
REMARK   84  A    between atoms: _207  and  _209
REMARK   85  A    between atoms: _209  and  _210
REMARK   86  A    between atoms: _209  and  _212
REMARK   87  A    between atoms: _212  and  _213
REMARK   88  A    between atoms: _218  and  _219
REMARK   89  A    between atoms: _221  and  _223
REMARK   90  A    between atoms: _223  and  _224
REMARK   91  A    between atoms: _223  and  _226
REMARK   92  A    between atoms: _226  and  _227
REMARK   93  A    between atoms: _237  and  _239
REMARK   94  A    between atoms: _239  and  _240
REMARK   95  A    between atoms: _239  and  _242
REMARK   96  A    between atoms: _242  and  _243
REMARK   97  A    between atoms: _246  and  _248
REMARK   98  A    between atoms: _248  and  _249
REMARK   99  A    between atoms: _248  and  _251
REMARK  100  A    between atoms: _251  and  _252
REMARK  101  A    between atoms: _252  and  _253
REMARK  102  A    between atoms: _253  and  _254
REMARK  103  A    between atoms: _263  and  _265
REMARK  104  A    between atoms: _265  and  _266
REMARK  105  A    between atoms: _265  and  _268
REMARK  106  A    between atoms: _268  and  _269
REMARK  107  A    between atoms: _274  and  _276
REMARK  108  A    between atoms: _276  and  _277
REMARK  109  A    between atoms: _276  and  _279
REMARK  110  A    between atoms: _279  and  _280
REMARK  111  A    between atoms: _283  and  _285
REMARK  112  A    between atoms: _285  and  _286
REMARK  113  A    between atoms: _285  and  _288
REMARK  114  A    between atoms: _288  and  _289
REMARK  115  A    between atoms: _289  and  _290
REMARK  116  A    between atoms: _295  and  _297
REMARK  117  A    between atoms: _297  and  _298
REMARK  118  A    between atoms: _297  and  _300
REMARK  119  A    between atoms: _300  and  _301
REMARK  120  A    between atoms: _304  and  _306
REMARK  121  A    between atoms: _306  and  _307
REMARK  122  A    between atoms: _306  and  _309
REMARK  123  A    between atoms: _311  and  _313
REMARK  124  A    between atoms: _313  and  _314
REMARK  125  A    between atoms: _313  and  _316
REMARK  126  A    between atoms: _316  and  _317
REMARK  127  A    between atoms: _320  and  _322
REMARK  128  A    between atoms: _322  and  _323
REMARK  129  A    between atoms: _322  and  _325
REMARK  130  A    between atoms: _325  and  _326
REMARK  131  A    between atoms: _331  and  _333
REMARK  132  A    between atoms: _333  and  _334
REMARK  133  A    between atoms: _333  and  _336
REMARK  134  A    between atoms: _336  and  _337
REMARK  135  A    between atoms: _337  and  _338
REMARK  136  A    between atoms: _343  and  _345
REMARK  137  A    between atoms: _345  and  _346
REMARK  138  A    between atoms: _345  and  _348
REMARK  139  A    between atoms: _348  and  _349
REMARK  140  A    between atoms: _352  and  _354
REMARK  141  A    between atoms: _354  and  _355
REMARK  142  A    between atoms: _354  and  _357
REMARK  143  A    between atoms: _357  and  _358
REMARK  144  A    between atoms: _361  and  _363
REMARK  145  A    between atoms: _363  and  _364
REMARK  146  A    between atoms: _363  and  _366
REMARK  147  A    between atoms: _366  and  _367
REMARK  148  A    between atoms: _367  and  _368
REMARK  149  A    between atoms: _368  and  _369
REMARK  150  A    between atoms: _378  and  _380
REMARK  151  A    between atoms: _380  and  _381
REMARK  152  A    between atoms: _380  and  _383
REMARK  153  A    between atoms: _383  and  _384
REMARK  154  A    between atoms: _384  and  _385
REMARK  155  A    between atoms: _388  and  _390
REMARK  156  A    between atoms: _390  and  _391
REMARK  157  A    between atoms: _390  and  _393
REMARK  158  A    between atoms: _393  and  _394
REMARK  159  A    between atoms: _396  and  _398
REMARK  160  A    between atoms: _398  and  _399
REMARK  161  A    between atoms: _398  and  _401
REMARK  162  A    between atoms: _401  and  _402
REMARK  163  A    between atoms: _405  and  _407
REMARK  164  A    between atoms: _407  and  _408
REMARK  165  A    between atoms: _407  and  _410
REMARK  166  A    between atoms: _410  and  _411
REMARK  167  A    between atoms: _411  and  _412
REMARK  168  A    between atoms: _412  and  _413
REMARK  169  A    between atoms: _422  and  _424
REMARK  170  A    between atoms: _424  and  _425
REMARK  171  A    between atoms: _424  and  _427
REMARK  172  A    between atoms: _427  and  _428
REMARK  173  A    between atoms: _433  and  _435
REMARK  174  A    between atoms: _435  and  _436
REMARK  175  A    between atoms: _435  and  _438
REMARK  176  A    between atoms: _438  and  _439
REMARK  177  A    between atoms: _442  and  _444
REMARK  178  A    between atoms: _444  and  _445
REMARK  179  A    between atoms: _444  and  _447
REMARK  180  A    between atoms: _447  and  _448
REMARK  181  A    between atoms: _453  and  _454
REMARK  182  A    between atoms: _456  and  _458
REMARK  183  A    between atoms: _458  and  _459
REMARK  184  A    between atoms: _458  and  _461
REMARK  185  A    between atoms: _461  and  _462
REMARK  186  A    between atoms: _465  and  _467
REMARK  187  A    between atoms: _467  and  _468
REMARK  188  A    between atoms: _467  and  _470
REMARK  189  A    between atoms: _470  and  _471
REMARK  190  A    between atoms: _471  and  _472
REMARK  191  A    between atoms: _477  and  _479
REMARK  192  A    between atoms: _479  and  _480
REMARK  193  A    between atoms: _479  and  _482
REMARK  194  A    between atoms: _482  and  _483
REMARK  195  A    between atoms: _483  and  _484
REMARK  196  A    between atoms: _484  and  _485
REMARK  197  A    between atoms: _494  and  _496
REMARK  198  A    between atoms: _496  and  _497
REMARK  199  A    between atoms: _496  and  _499
REMARK  200  A    between atoms: _499  and  _500
REMARK  201  A    between atoms: _505  and  _506
REMARK  202  A    between atoms: _508  and  _510
REMARK  203  A    between atoms: _510  and  _511
REMARK  204  A    between atoms: _513  and  _515
REMARK  205  A    between atoms: _515  and  _516
REMARK  206  A    between atoms: _515  and  _518
REMARK  207  A    between atoms: _518  and  _519
REMARK  208  A    between atoms: _524  and  _526
REMARK  209  A    between atoms: _526  and  _527
REMARK  210  A    between atoms: _526  and  _529
REMARK  211  A    between atoms: _529  and  _530
REMARK  212  A    between atoms: _530  and  _531
REMARK  213  A    between atoms: _536  and  _538
REMARK  214  A    between atoms: _538  and  _539
REMARK  215  A    between atoms: _538  and  _541
REMARK  216  A    between atoms: _541  and  _542
REMARK  217  A    between atoms: _548  and  _550
REMARK  218  A    between atoms: _550  and  _551
REMARK  219  A    between atoms: _554  and  _556
REMARK  220  A    between atoms: _556  and  _557
REMARK  221  A    between atoms: _556  and  _559
REMARK  222  A    between atoms: _559  and  _560
REMARK  223  A    between atoms: _565  and  _566
REMARK  224  A    between atoms: _568  and  _570
REMARK  225  A    between atoms: _570  and  _571
REMARK  226  A    between atoms: _570  and  _573
REMARK  227  A    between atoms: _573  and  _574
REMARK  228  A    between atoms: _579  and  _580
REMARK  229  A    between atoms: _582  and  _584
REMARK  230  A    between atoms: _584  and  _585
REMARK  231  A    between atoms: _584  and  _587
REMARK  232  A    between atoms: _587  and  _588
REMARK  233  A    between atoms: _591  and  _593
REMARK  234  A    between atoms: _593  and  _594
REMARK  235  A    between atoms: _593  and  _596
REMARK  236  A    between atoms: _596  and  _597
REMARK  237  A    between atoms: _607  and  _609
REMARK  238  A    between atoms: _609  and  _610
REMARK  239  A    between atoms: _613  and  _615
REMARK  240  A    between atoms: _615  and  _616
REMARK  241  A    between atoms: _619  and  _621
REMARK  242  A    between atoms: _621  and  _622
REMARK  243  A    between atoms: _621  and  _624
REMARK  244  A    between atoms: _624  and  _625
REMARK  245  A    between atoms: _625  and  _626
REMARK  246  A    between atoms: _631  and  _633
REMARK  247  A    between atoms: _633  and  _634
REMARK  248  A    between atoms: _633  and  _636
REMARK  249  A    between atoms: _636  and  _637
REMARK  250  A    between atoms: _640  and  _642
REMARK  251  A    between atoms: _642  and  _643
REMARK  252  A    between atoms: _642  and  _645
REMARK  253  A    between atoms: _645  and  _646
REMARK  254  A    between atoms: _649  and  _651
REMARK  255  A    between atoms: _651  and  _652
REMARK  256  A    between atoms: _651  and  _654
REMARK  257  A    between atoms: _654  and  _655
REMARK  258  A    between atoms: _655  and  _656
REMARK  259  A    between atoms: _661  and  _663
REMARK  260  A    between atoms: _663  and  _664
REMARK  261  A    between atoms: _663  and  _666
REMARK  262  A    between atoms: _666  and  _667
REMARK  263  A    between atoms: _667  and  _668
REMARK  264  A    between atoms: _668  and  _669
REMARK  265  A    between atoms: _678  and  _680
REMARK  266  A    between atoms: _680  and  _681
REMARK  267  A    between atoms: _680  and  _683
REMARK  268  A    between atoms: _683  and  _684
REMARK  269  A    between atoms: _684  and  _685
REMARK  270  A    between atoms: _685  and  _686
REMARK  271  A    between atoms: _686  and  _687
REMARK  272  A    between atoms: _691  and  _693
REMARK  273  A    between atoms: _693  and  _694
REMARK  274  A    between atoms: _693  and  _696
REMARK  275  A    between atoms: _696  and  _697
REMARK  276  A    between atoms: _707  and  _709
REMARK  277  A    between atoms: _709  and  _710
REMARK  278  A    between atoms: _713  and  _715
REMARK  279  A    between atoms: _715  and  _716
REMARK  280  A    between atoms: _719  and  _721
REMARK  281  A    between atoms: _721  and  _722
REMARK  282  A    between atoms: _721  and  _724
REMARK  283  A    between atoms: _724  and  _725
REMARK  284  A    between atoms: _725  and  _726
REMARK  285  A    between atoms: _726  and  _727
REMARK  286  A    between atoms: _736  and  _738
REMARK  287  A    between atoms: _738  and  _739
REMARK  288  A    between atoms: _738  and  _741
REMARK  289  A    between atoms: _744  and  _746
REMARK  290  A    between atoms: _746  and  _747
REMARK  291  A    between atoms: _750  and  _752
REMARK  292  A    between atoms: _752  and  _753
REMARK  293  A    between atoms: _752  and  _755
REMARK  294  A    between atoms: _755  and  _756
REMARK  295  A    between atoms: _756  and  _757
REMARK  296  A    between atoms: _760  and  _762
REMARK  297  A    between atoms: _762  and  _763
REMARK  298  A    between atoms: _762  and  _765
REMARK  299  A    between atoms: _765  and  _766
REMARK  300  A    between atoms: _766  and  _767
REMARK  301  A    between atoms: _772  and  _774
REMARK  302  A    between atoms: _774  and  _775
REMARK  303  A    between atoms: _774  and  _777
REMARK  304  A    between atoms: _777  and  _778
REMARK  305  A    between atoms: _781  and  _783
REMARK  306  A    between atoms: _783  and  _784
REMARK  307  A    between atoms: _783  and  _786
REMARK  308  A    between atoms: _786  and  _787
REMARK  309  A    between atoms: _787  and  _788
REMARK  310  A    between atoms: _788  and  _789
REMARK  311  A    between atoms: _798  and  _800
REMARK  312  A    between atoms: _800  and  _801
REMARK  313  A    between atoms: _800  and  _803
REMARK  314  A    between atoms: _803  and  _804
REMARK  315  A    between atoms: _807  and  _809
REMARK  316  A    between atoms: _809  and  _810
REMARK  317  A    between atoms: _809  and  _812
REMARK  318  A    between atoms: _812  and  _813
REMARK  319  A    between atoms: _818  and  _819
REMARK  320  A    between atoms: _821  and  _823
REMARK  321  A    between atoms: _823  and  _824
REMARK  322  A    between atoms: _823  and  _826
REMARK  323  A    between atoms: _826  and  _827
REMARK  324  A    between atoms: _830  and  _832
REMARK  325  A    between atoms: _832  and  _833
REMARK  326  A    between atoms: _832  and  _835
REMARK  327  A    between atoms: _835  and  _836
REMARK  328  A    between atoms: _839  and  _841
REMARK  329  A    between atoms: _841  and  _842
REMARK  330  A    between atoms: _841  and  _844
REMARK  331  A    between atoms: _846  and  _848
REMARK  332  A    between atoms: _848  and  _849
REMARK  333  A    between atoms: _848  and  _851
REMARK  334  A    between atoms: _854  and  _856
REMARK  335  A    between atoms: _856  and  _857
REMARK  336  A    between atoms: _856  and  _859
REMARK  337  A    between atoms: _859  and  _860
REMARK  338  A    between atoms: _860  and  _861
REMARK  339  A    between atoms: _864  and  _866
REMARK  340  A    between atoms: _866  and  _867
REMARK  341  A    between atoms: _866  and  _869
REMARK  342  A    between atoms: _869  and  _870
REMARK  343  A    between atoms: _880  and  _882
REMARK  344  A    between atoms: _882  and  _883
REMARK  345  A    between atoms: _882  and  _885
REMARK  346  A    between atoms: _885  and  _886
REMARK  347  A    between atoms: _889  and  _891
REMARK  348  A    between atoms: _891  and  _892
REMARK  349  A    between atoms: _891  and  _894
REMARK  350  A    between atoms: _894  and  _895
REMARK  351  A    between atoms: _900  and  _901
REMARK                            x       y       z     vdW  Elec       q    Type
REMARK                         _______ _______ _______ _____ _____    ______ ____
ROOT
ATOM      1  O   HOH     1      -0.986   8.591  33.558  0.00  0.00    +0.000 OA
ENDROOT
TORSDOF 0
REMARK  Name = ../refined-set-2016/4o2c/4o2c_pocket.pdb
REMARK  351 active torsions:
REMARK  status: ('A' for Active; 'I' for Inactive)
REMARK    1  A    between atoms: _1  and  _3
REMARK    2  A    between atoms: _3  and  _4
REMARK    3  A    between atoms: _3  and  _6
REMARK    4  A    between atoms: _6  and  _7
REMARK    5  A    between atoms: _7  and  _8
REMARK    6  A    between atoms: _10  and  _12
REMARK    7  A    between atoms: _12  and  _13
REMARK    8  A    between atoms: _12  and  _15
REMARK    9  A    between atoms: _15  and  _16
REMARK   10  A    between atoms: _16  and  _17
REMARK   11  A    between atoms: _17  and  _18
REMARK   12  A    between atoms: _27  and  _29
REMARK   13  A    between atoms: _29  and  _30
REMARK   14  A    between atoms: _29  and  _32
REMARK   15  A    between atoms: _32  and  _33
REMARK   16  A    between atoms: _38  and  _39
REMARK   17  A    between atoms: _41  and  _43
REMARK   18  A    between atoms: _43  and  _44
REMARK   19  A    between atoms: _43  and  _46
REMARK   20  A    between atoms: _46  and  _47
REMARK   21  A    between atoms: _53  and  _55
REMARK   22  A    between atoms: _55  and  _56
REMARK   23  A    between atoms: _55  and  _58
REMARK   24  A    between atoms: _58  and  _59
REMARK   25  A    between atoms: _64  and  _65
REMARK   26  A    between atoms: _67  and  _69
REMARK   27  A    between atoms: _69  and  _70
REMARK   28  A    between atoms: _69  and  _72
REMARK   29  A    between atoms: _72  and  _73
REMARK   30  A    between atoms: _79  and  _81
REMARK   31  A    between atoms: _81  and  _82
REMARK   32  A    between atoms: _81  and  _84
REMARK   33  A    between atoms: _84  and  _85
REMARK   34  A    between atoms: _88  and  _90
REMARK   35  A    between atoms: _90  and  _91
REMARK   36  A    between atoms: _90  and  _93
REMARK   37  A    between atoms: _93  and  _94
REMARK   38  A    between atoms: _96  and  _98
REMARK   39  A    between atoms: _98  and  _99
REMARK   40  A    between atoms: _98  and  _101
REMARK   41  A    between atoms: _104  and  _106
REMARK   42  A    between atoms: _106  and  _107
REMARK   43  A    between atoms: _109  and  _111
REMARK   44  A    between atoms: _111  and  _112
REMARK   45  A    between atoms: _111  and  _114
REMARK   46  A    between atoms: _114  and  _115
REMARK   47  A    between atoms: _121  and  _123
REMARK   48  A    between atoms: _123  and  _124
REMARK   49  A    between atoms: _123  and  _126
REMARK   50  A    between atoms: _129  and  _131
REMARK   51  A    between atoms: _131  and  _132
REMARK   52  A    between atoms: _131  and  _134
REMARK   53  A    between atoms: _134  and  _135
REMARK   54  A    between atoms: _135  and  _136
REMARK   55  A    between atoms: _136  and  _137
REMARK   56  A    between atoms: _146  and  _148
REMARK   57  A    between atoms: _148  and  _149
REMARK   58  A    between atoms: _148  and  _151
REMARK   59  A    between atoms: _151  and  _152
REMARK   60  A    between atoms: _158  and  _160
REMARK   61  A    between atoms: _160  and  _161
REMARK   62  A    between atoms: _160  and  _163
REMARK   63  A    between atoms: _163  and  _164
REMARK   64  A    between atoms: _164  and  _165
REMARK   65  A    between atoms: _168  and  _170
REMARK   66  A    between atoms: _170  and  _171
REMARK   67  A    between atoms: _170  and  _173
REMARK   68  A    between atoms: _173  and  _174
REMARK   69  A    between atoms: _174  and  _175
REMARK   70  A    between atoms: _178  and  _180
REMARK   71  A    between atoms: _180  and  _181
REMARK   72  A    between atoms: _180  and  _183
REMARK   73  A    between atoms: _183  and  _184
REMARK   74  A    between atoms: _187  and  _189
REMARK   75  A    between atoms: _189  and  _190
REMARK   76  A    between atoms: _189  and  _192
REMARK   77  A    between atoms: _192  and  _193
REMARK   78  A    between atoms: _193  and  _194
REMARK   79  A    between atoms: _197  and  _199
REMARK   80  A    between atoms: _199  and  _200
REMARK   81  A    between atoms: _199  and  _202
REMARK   82  A    between atoms: _202  and  _203
REMARK   83  A    between atoms: _203  and  _204
REMARK   84  A    between atoms: _207  and  _209
REMARK   85  A    between atoms: _209  and  _210
REMARK   86  A    between atoms: _209  and  _212
REMARK   87  A    between atoms: _212  and  _213
REMARK   88  A    between atoms: _218  and  _219
REMARK   89  A    between atoms: _221  and  _223
REMARK   90  A    between atoms: _223  and  _224
REMARK   91  A    between atoms: _223  and  _226
REMARK   92  A    between atoms: _226  and  _227
REMARK   93  A    between atoms: _237  and  _239
REMARK   94  A    between atoms: _239  and  _240
REMARK   95  A    between atoms: _239  and  _242
REMARK   96  A    between atoms: _242  and  _243
REMARK   97  A    between atoms: _246  and  _248
REMARK   98  A    between atoms: _248  and  _249
REMARK   99  A    between atoms: _248  and  _251
REMARK  100  A    between atoms: _251  and  _252
REMARK  101  A    between atoms: _252  and  _253
REMARK  102  A    between atoms: _253  and  _254
REMARK  103  A    between atoms: _263  and  _265
REMARK  104  A    between atoms: _265  and  _266
REMARK  105  A    between atoms: _265  and  _268
REMARK  106  A    between atoms: _268  and  _269
REMARK  107  A    between atoms: _274  and  _276
REMARK  108  A    between atoms: _276  and  _277
REMARK  109  A    between atoms: _276  and  _279
REMARK  110  A    between atoms: _279  and  _280
REMARK  111  A    between atoms: _283  and  _285
REMARK  112  A    between atoms: _285  and  _286
REMARK  113  A    between atoms: _285  and  _288
REMARK  114  A    between atoms: _288  and  _289
REMARK  115  A    between atoms: _289  and  _290
REMARK  116  A    between atoms: _295  and  _297
REMARK  117  A    between atoms: _297  and  _298
REMARK  118  A    between atoms: _297  and  _300
REMARK  119  A    between atoms: _300  and  _301
REMARK  120  A    between atoms: _304  and  _306
REMARK  121  A    between atoms: _306  and  _307
REMARK  122  A    between atoms: _306  and  _309
REMARK  123  A    between atoms: _311  and  _313
REMARK  124  A    between atoms: _313  and  _314
REMARK  125  A    between atoms: _313  and  _316
REMARK  126  A    between atoms: _316  and  _317
REMARK  127  A    between atoms: _320  and  _322
REMARK  128  A    between atoms: _322  and  _323
REMARK  129  A    between atoms: _322  and  _325
REMARK  130  A    between atoms: _325  and  _326
REMARK  131  A    between atoms: _331  and  _333
REMARK  132  A    between atoms: _333  and  _334
REMARK  133  A    between atoms: _333  and  _336
REMARK  134  A    between atoms: _336  and  _337
REMARK  135  A    between atoms: _337  and  _338
REMARK  136  A    between atoms: _343  and  _345
REMARK  137  A    between atoms: _345  and  _346
REMARK  138  A    between atoms: _345  and  _348
REMARK  139  A    between atoms: _348  and  _349
REMARK  140  A    between atoms: _352  and  _354
REMARK  141  A    between atoms: _354  and  _355
REMARK  142  A    between atoms: _354  and  _357
REMARK  143  A    between atoms: _357  and  _358
REMARK  144  A    between atoms: _361  and  _363
REMARK  145  A    between atoms: _363  and  _364
REMARK  146  A    between atoms: _363  and  _366
REMARK  147  A    between atoms: _366  and  _367
REMARK  148  A    between atoms: _367  and  _368
REMARK  149  A    between atoms: _368  and  _369
REMARK  150  A    between atoms: _378  and  _380
REMARK  151  A    between atoms: _380  and  _381
REMARK  152  A    between atoms: _380  and  _383
REMARK  153  A    between atoms: _383  and  _384
REMARK  154  A    between atoms: _384  and  _385
REMARK  155  A    between atoms: _388  and  _390
REMARK  156  A    between atoms: _390  and  _391
REMARK  157  A    between atoms: _390  and  _393
REMARK  158  A    between atoms: _393  and  _394
REMARK  159  A    between atoms: _396  and  _398
REMARK  160  A    between atoms: _398  and  _399
REMARK  161  A    between atoms: _398  and  _401
REMARK  162  A    between atoms: _401  and  _402
REMARK  163  A    between atoms: _405  and  _407
REMARK  164  A    between atoms: _407  and  _408
REMARK  165  A    between atoms: _407  and  _410
REMARK  166  A    between atoms: _410  and  _411
REMARK  167  A    between atoms: _411  and  _412
REMARK  168  A    between atoms: _412  and  _413
REMARK  169  A    between atoms: _422  and  _424
REMARK  170  A    between atoms: _424  and  _425
REMARK  171  A    between atoms: _424  and  _427
REMARK  172  A    between atoms: _427  and  _428
REMARK  173  A    between atoms: _433  and  _435
REMARK  174  A    between atoms: _435  and  _436
REMARK  175  A    between atoms: _435  and  _438
REMARK  176  A    between atoms: _438  and  _439
REMARK  177  A    between atoms: _442  and  _444
REMARK  178  A    between atoms: _444  and  _445
REMARK  179  A    between atoms: _444  and  _447
REMARK  180  A    between atoms: _447  and  _448
REMARK  181  A    between atoms: _453  and  _454
REMARK  182  A    between atoms: _456  and  _458
REMARK  183  A    between atoms: _458  and  _459
REMARK  184  A    between atoms: _458  and  _461
REMARK  185  A    between atoms: _461  and  _462
REMARK  186  A    between atoms: _465  and  _467
REMARK  187  A    between atoms: _467  and  _468
REMARK  188  A    between atoms: _467  and  _470
REMARK  189  A    between atoms: _470  and  _471
REMARK  190  A    between atoms: _471  and  _472
REMARK  191  A    between atoms: _477  and  _479
REMARK  192  A    between atoms: _479  and  _480
REMARK  193  A    between atoms: _479  and  _482
REMARK  194  A    between atoms: _482  and  _483
REMARK  195  A    between atoms: _483  and  _484
REMARK  196  A    between atoms: _484  and  _485
REMARK  197  A    between atoms: _494  and  _496
REMARK  198  A    between atoms: _496  and  _497
REMARK  199  A    between atoms: _496  and  _499
REMARK  200  A    between atoms: _499  and  _500
REMARK  201  A    between atoms: _505  and  _506
REMARK  202  A    between atoms: _508  and  _510
REMARK  203  A    between atoms: _510  and  _511
REMARK  204  A    between atoms: _513  and  _515
REMARK  205  A    between atoms: _515  and  _516
REMARK  206  A    between atoms: _515  and  _518
REMARK  207  A    between atoms: _518  and  _519
REMARK  208  A    between atoms: _524  and  _526
REMARK  209  A    between atoms: _526  and  _527
REMARK  210  A    between atoms: _526  and  _529
REMARK  211  A    between atoms: _529  and  _530
REMARK  212  A    between atoms: _530  and  _531
REMARK  213  A    between atoms: _536  and  _538
REMARK  214  A    between atoms: _538  and  _539
REMARK  215  A    between atoms: _538  and  _541
REMARK  216  A    between atoms: _541  and  _542
REMARK  217  A    between atoms: _548  and  _550
REMARK  218  A    between atoms: _550  and  _551
REMARK  219  A    between atoms: _554  and  _556
REMARK  220  A    between atoms: _556  and  _557
REMARK  221  A    between atoms: _556  and  _559
REMARK  222  A    between atoms: _559  and  _560
REMARK  223  A    between atoms: _565  and  _566
REMARK  224  A    between atoms: _568  and  _570
REMARK  225  A    between atoms: _570  and  _571
REMARK  226  A    between atoms: _570  and  _573
REMARK  227  A    between atoms: _573  and  _574
REMARK  228  A    between atoms: _579  and  _580
REMARK  229  A    between atoms: _582  and  _584
REMARK  230  A    between atoms: _584  and  _585
REMARK  231  A    between atoms: _584  and  _587
REMARK  232  A    between atoms: _587  and  _588
REMARK  233  A    between atoms: _591  and  _593
REMARK  234  A    between atoms: _593  and  _594
REMARK  235  A    between atoms: _593  and  _596
REMARK  236  A    between atoms: _596  and  _597
REMARK  237  A    between atoms: _607  and  _609
REMARK  238  A    between atoms: _609  and  _610
REMARK  239  A    between atoms: _613  and  _615
REMARK  240  A    between atoms: _615  and  _616
REMARK  241  A    between atoms: _619  and  _621
REMARK  242  A    between atoms: _621  and  _622
REMARK  243  A    between atoms: _621  and  _624
REMARK  244  A    between atoms: _624  and  _625
REMARK  245  A    between atoms: _625  and  _626
REMARK  246  A    between atoms: _631  and  _633
REMARK  247  A    between atoms: _633  and  _634
REMARK  248  A    between atoms: _633  and  _636
REMARK  249  A    between atoms: _636  and  _637
REMARK  250  A    between atoms: _640  and  _642
REMARK  251  A    between atoms: _642  and  _643
REMARK  252  A    between atoms: _642  and  _645
REMARK  253  A    between atoms: _645  and  _646
REMARK  254  A    between atoms: _649  and  _651
REMARK  255  A    between atoms: _651  and  _652
REMARK  256  A    between atoms: _651  and  _654
REMARK  257  A    between atoms: _654  and  _655
REMARK  258  A    between atoms: _655  and  _656
REMARK  259  A    between atoms: _661  and  _663
REMARK  260  A    between atoms: _663  and  _664
REMARK  261  A    between atoms: _663  and  _666
REMARK  262  A    between atoms: _666  and  _667
REMARK  263  A    between atoms: _667  and  _668
REMARK  264  A    between atoms: _668  and  _669
REMARK  265  A    between atoms: _678  and  _680
REMARK  266  A    between atoms: _680  and  _681
REMARK  267  A    between atoms: _680  and  _683
REMARK  268  A    between atoms: _683  and  _684
REMARK  269  A    between atoms: _684  and  _685
REMARK  270  A    between atoms: _685  and  _686
REMARK  271  A    between atoms: _686  and  _687
REMARK  272  A    between atoms: _691  and  _693
REMARK  273  A    between atoms: _693  and  _694
REMARK  274  A    between atoms: _693  and  _696
REMARK  275  A    between atoms: _696  and  _697
REMARK  276  A    between atoms: _707  and  _709
REMARK  277  A    between atoms: _709  and  _710
REMARK  278  A    between atoms: _713  and  _715
REMARK  279  A    between atoms: _715  and  _716
REMARK  280  A    between atoms: _719  and  _721
REMARK  281  A    between atoms: _721  and  _722
REMARK  282  A    between atoms: _721  and  _724
REMARK  283  A    between atoms: _724  and  _725
REMARK  284  A    between atoms: _725  and  _726
REMARK  285  A    between atoms: _726  and  _727
REMARK  286  A    between atoms: _736  and  _738
REMARK  287  A    between atoms: _738  and  _739
REMARK  288  A    between atoms: _738  and  _741
REMARK  289  A    between atoms: _744  and  _746
REMARK  290  A    between atoms: _746  and  _747
REMARK  291  A    between atoms: _750  and  _752
REMARK  292  A    between atoms: _752  and  _753
REMARK  293  A    between atoms: _752  and  _755
REMARK  294  A    between atoms: _755  and  _756
REMARK  295  A    between atoms: _756  and  _757
REMARK  296  A    between atoms: _760  and  _762
REMARK  297  A    between atoms: _762  and  _763
REMARK  298  A    between atoms: _762  and  _765
REMARK  299  A    between atoms: _765  and  _766
REMARK  300  A    between atoms: _766  and  _767
REMARK  301  A    between atoms: _772  and  _774
REMARK  302  A    between atoms: _774  and  _775
REMARK  303  A    between atoms: _774  and  _777
REMARK  304  A    between atoms: _777  and  _778
REMARK  305  A    between atoms: _781  and  _783
REMARK  306  A    between atoms: _783  and  _784
REMARK  307  A    between atoms: _783  and  _786
REMARK  308  A    between atoms: _786  and  _787
REMARK  309  A    between atoms: _787  and  _788
REMARK  310  A    between atoms: _788  and  _789
REMARK  311  A    between atoms: _798  and  _800
REMARK  312  A    between atoms: _800  and  _801
REMARK  313  A    between atoms: _800  and  _803
REMARK  314  A    between atoms: _803  and  _804
REMARK  315  A    between atoms: _807  and  _809
REMARK  316  A    between atoms: _809  and  _810
REMARK  317  A    between atoms: _809  and  _812
REMARK  318  A    between atoms: _812  and  _813
REMARK  319  A    between atoms: _818  and  _819
REMARK  320  A    between atoms: _821  and  _823
REMARK  321  A    between atoms: _823  and  _824
REMARK  322  A    between atoms: _823  and  _826
REMARK  323  A    between atoms: _826  and  _827
REMARK  324  A    between atoms: _830  and  _832
REMARK  325  A    between atoms: _832  and  _833
REMARK  326  A    between atoms: _832  and  _835
REMARK  327  A    between atoms: _835  and  _836
REMARK  328  A    between atoms: _839  and  _841
REMARK  329  A    between atoms: _841  and  _842
REMARK  330  A    between atoms: _841  and  _844
REMARK  331  A    between atoms: _846  and  _848
REMARK  332  A    between atoms: _848  and  _849
REMARK  333  A    between atoms: _848  and  _851
REMARK  334  A    between atoms: _854  and  _856
REMARK  335  A    between atoms: _856  and  _857
REMARK  336  A    between atoms: _856  and  _859
REMARK  337  A    between atoms: _859  and  _860
REMARK  338  A    between atoms: _860  and  _861
REMARK  339  A    between atoms: _864  and  _866
REMARK  340  A    between atoms: _866  and  _867
REMARK  341  A    between atoms: _866  and  _869
REMARK  342  A    between atoms: _869  and  _870
REMARK  343  A    between atoms: _880  and  _882
REMARK  344  A    between atoms: _882  and  _883
REMARK  345  A    between atoms: _882  and  _885
REMARK  346  A    between atoms: _885  and  _886
REMARK  347  A    between atoms: _889  and  _891
REMARK  348  A    between atoms: _891  and  _892
REMARK  349  A    between atoms: _891  and  _894
REMARK  350  A    between atoms: _894  and  _895
REMARK  351  A    between atoms: _900  and  _901
REMARK                            x       y       z     vdW  Elec       q    Type
REMARK                         _______ _______ _______ _____ _____    ______ ____
ROOT
ATOM      1  O   HOH     1       1.810   8.192  42.795  0.00  0.00    +0.000 OA
ENDROOT
TORSDOF 0
REMARK  Name = ../refined-set-2016/4o2c/4o2c_pocket.pdb
REMARK  351 active torsions:
REMARK  status: ('A' for Active; 'I' for Inactive)
REMARK    1  A    between atoms: _1  and  _3
REMARK    2  A    between atoms: _3  and  _4
REMARK    3  A    between atoms: _3  and  _6
REMARK    4  A    between atoms: _6  and  _7
REMARK    5  A    between atoms: _7  and  _8
REMARK    6  A    between atoms: _10  and  _12
REMARK    7  A    between atoms: _12  and  _13
REMARK    8  A    between atoms: _12  and  _15
REMARK    9  A    between atoms: _15  and  _16
REMARK   10  A    between atoms: _16  and  _17
REMARK   11  A    between atoms: _17  and  _18
REMARK   12  A    between atoms: _27  and  _29
REMARK   13  A    between atoms: _29  and  _30
REMARK   14  A    between atoms: _29  and  _32
REMARK   15  A    between atoms: _32  and  _33
REMARK   16  A    between atoms: _38  and  _39
REMARK   17  A    between atoms: _41  and  _43
REMARK   18  A    between atoms: _43  and  _44
REMARK   19  A    between atoms: _43  and  _46
REMARK   20  A    between atoms: _46  and  _47
REMARK   21  A    between atoms: _53  and  _55
REMARK   22  A    between atoms: _55  and  _56
REMARK   23  A    between atoms: _55  and  _58
REMARK   24  A    between atoms: _58  and  _59
REMARK   25  A    between atoms: _64  and  _65
REMARK   26  A    between atoms: _67  and  _69
REMARK   27  A    between atoms: _69  and  _70
REMARK   28  A    between atoms: _69  and  _72
REMARK   29  A    between atoms: _72  and  _73
REMARK   30  A    between atoms: _79  and  _81
REMARK   31  A    between atoms: _81  and  _82
REMARK   32  A    between atoms: _81  and  _84
REMARK   33  A    between atoms: _84  and  _85
REMARK   34  A    between atoms: _88  and  _90
REMARK   35  A    between atoms: _90  and  _91
REMARK   36  A    between atoms: _90  and  _93
REMARK   37  A    between atoms: _93  and  _94
REMARK   38  A    between atoms: _96  and  _98
REMARK   39  A    between atoms: _98  and  _99
REMARK   40  A    between atoms: _98  and  _101
REMARK   41  A    between atoms: _104  and  _106
REMARK   42  A    between atoms: _106  and  _107
REMARK   43  A    between atoms: _109  and  _111
REMARK   44  A    between atoms: _111  and  _112
REMARK   45  A    between atoms: _111  and  _114
REMARK   46  A    between atoms: _114  and  _115
REMARK   47  A    between atoms: _121  and  _123
REMARK   48  A    between atoms: _123  and  _124
REMARK   49  A    between atoms: _123  and  _126
REMARK   50  A    between atoms: _129  and  _131
REMARK   51  A    between atoms: _131  and  _132
REMARK   52  A    between atoms: _131  and  _134
REMARK   53  A    between atoms: _134  and  _135
REMARK   54  A    between atoms: _135  and  _136
REMARK   55  A    between atoms: _136  and  _137
REMARK   56  A    between atoms: _146  and  _148
REMARK   57  A    between atoms: _148  and  _149
REMARK   58  A    between atoms: _148  and  _151
REMARK   59  A    between atoms: _151  and  _152
REMARK   60  A    between atoms: _158  and  _160
REMARK   61  A    between atoms: _160  and  _161
REMARK   62  A    between atoms: _160  and  _163
REMARK   63  A    between atoms: _163  and  _164
REMARK   64  A    between atoms: _164  and  _165
REMARK   65  A    between atoms: _168  and  _170
REMARK   66  A    between atoms: _170  and  _171
REMARK   67  A    between atoms: _170  and  _173
REMARK   68  A    between atoms: _173  and  _174
REMARK   69  A    between atoms: _174  and  _175
REMARK   70  A    between atoms: _178  and  _180
REMARK   71  A    between atoms: _180  and  _181
REMARK   72  A    between atoms: _180  and  _183
REMARK   73  A    between atoms: _183  and  _184
REMARK   74  A    between atoms: _187  and  _189
REMARK   75  A    between atoms: _189  and  _190
REMARK   76  A    between atoms: _189  and  _192
REMARK   77  A    between atoms: _192  and  _193
REMARK   78  A    between atoms: _193  and  _194
REMARK   79  A    between atoms: _197  and  _199
REMARK   80  A    between atoms: _199  and  _200
REMARK   81  A    between atoms: _199  and  _202
REMARK   82  A    between atoms: _202  and  _203
REMARK   83  A    between atoms: _203  and  _204
REMARK   84  A    between atoms: _207  and  _209
REMARK   85  A    between atoms: _209  and  _210
REMARK   86  A    between atoms: _209  and  _212
REMARK   87  A    between atoms: _212  and  _213
REMARK   88  A    between atoms: _218  and  _219
REMARK   89  A    between atoms: _221  and  _223
REMARK   90  A    between atoms: _223  and  _224
REMARK   91  A    between atoms: _223  and  _226
REMARK   92  A    between atoms: _226  and  _227
REMARK   93  A    between atoms: _237  and  _239
REMARK   94  A    between atoms: _239  and  _240
REMARK   95  A    between atoms: _239  and  _242
REMARK   96  A    between atoms: _242  and  _243
REMARK   97  A    between atoms: _246  and  _248
REMARK   98  A    between atoms: _248  and  _249
REMARK   99  A    between atoms: _248  and  _251
REMARK  100  A    between atoms: _251  and  _252
REMARK  101  A    between atoms: _252  and  _253
REMARK  102  A    between atoms: _253  and  _254
REMARK  103  A    between atoms: _263  and  _265
REMARK  104  A    between atoms: _265  and  _266
REMARK  105  A    between atoms: _265  and  _268
REMARK  106  A    between atoms: _268  and  _269
REMARK  107  A    between atoms: _274  and  _276
REMARK  108  A    between atoms: _276  and  _277
REMARK  109  A    between atoms: _276  and  _279
REMARK  110  A    between atoms: _279  and  _280
REMARK  111  A    between atoms: _283  and  _285
REMARK  112  A    between atoms: _285  and  _286
REMARK  113  A    between atoms: _285  and  _288
REMARK  114  A    between atoms: _288  and  _289
REMARK  115  A    between atoms: _289  and  _290
REMARK  116  A    between atoms: _295  and  _297
REMARK  117  A    between atoms: _297  and  _298
REMARK  118  A    between atoms: _297  and  _300
REMARK  119  A    between atoms: _300  and  _301
REMARK  120  A    between atoms: _304  and  _306
REMARK  121  A    between atoms: _306  and  _307
REMARK  122  A    between atoms: _306  and  _309
REMARK  123  A    between atoms: _311  and  _313
REMARK  124  A    between atoms: _313  and  _314
REMARK  125  A    between atoms: _313  and  _316
REMARK  126  A    between atoms: _316  and  _317
REMARK  127  A    between atoms: _320  and  _322
REMARK  128  A    between atoms: _322  and  _323
REMARK  129  A    between atoms: _322  and  _325
REMARK  130  A    between atoms: _325  and  _326
REMARK  131  A    between atoms: _331  and  _333
REMARK  132  A    between atoms: _333  and  _334
REMARK  133  A    between atoms: _333  and  _336
REMARK  134  A    between atoms: _336  and  _337
REMARK  135  A    between atoms: _337  and  _338
REMARK  136  A    between atoms: _343  and  _345
REMARK  137  A    between atoms: _345  and  _346
REMARK  138  A    between atoms: _345  and  _348
REMARK  139  A    between atoms: _348  and  _349
REMARK  140  A    between atoms: _352  and  _354
REMARK  141  A    between atoms: _354  and  _355
REMARK  142  A    between atoms: _354  and  _357
REMARK  143  A    between atoms: _357  and  _358
REMARK  144  A    between atoms: _361  and  _363
REMARK  145  A    between atoms: _363  and  _364
REMARK  146  A    between atoms: _363  and  _366
REMARK  147  A    between atoms: _366  and  _367
REMARK  148  A    between atoms: _367  and  _368
REMARK  149  A    between atoms: _368  and  _369
REMARK  150  A    between atoms: _378  and  _380
REMARK  151  A    between atoms: _380  and  _381
REMARK  152  A    between atoms: _380  and  _383
REMARK  153  A    between atoms: _383  and  _384
REMARK  154  A    between atoms: _384  and  _385
REMARK  155  A    between atoms: _388  and  _390
REMARK  156  A    between atoms: _390  and  _391
REMARK  157  A    between atoms: _390  and  _393
REMARK  158  A    between atoms: _393  and  _394
REMARK  159  A    between atoms: _396  and  _398
REMARK  160  A    between atoms: _398  and  _399
REMARK  161  A    between atoms: _398  and  _401
REMARK  162  A    between atoms: _401  and  _402
REMARK  163  A    between atoms: _405  and  _407
REMARK  164  A    between atoms: _407  and  _408
REMARK  165  A    between atoms: _407  and  _410
REMARK  166  A    between atoms: _410  and  _411
REMARK  167  A    between atoms: _411  and  _412
REMARK  168  A    between atoms: _412  and  _413
REMARK  169  A    between atoms: _422  and  _424
REMARK  170  A    between atoms: _424  and  _425
REMARK  171  A    between atoms: _424  and  _427
REMARK  172  A    between atoms: _427  and  _428
REMARK  173  A    between atoms: _433  and  _435
REMARK  174  A    between atoms: _435  and  _436
REMARK  175  A    between atoms: _435  and  _438
REMARK  176  A    between atoms: _438  and  _439
REMARK  177  A    between atoms: _442  and  _444
REMARK  178  A    between atoms: _444  and  _445
REMARK  179  A    between atoms: _444  and  _447
REMARK  180  A    between atoms: _447  and  _448
REMARK  181  A    between atoms: _453  and  _454
REMARK  182  A    between atoms: _456  and  _458
REMARK  183  A    between atoms: _458  and  _459
REMARK  184  A    between atoms: _458  and  _461
REMARK  185  A    between atoms: _461  and  _462
REMARK  186  A    between atoms: _465  and  _467
REMARK  187  A    between atoms: _467  and  _468
REMARK  188  A    between atoms: _467  and  _470
REMARK  189  A    between atoms: _470  and  _471
REMARK  190  A    between atoms: _471  and  _472
REMARK  191  A    between atoms: _477  and  _479
REMARK  192  A    between atoms: _479  and  _480
REMARK  193  A    between atoms: _479  and  _482
REMARK  194  A    between atoms: _482  and  _483
REMARK  195  A    between atoms: _483  and  _484
REMARK  196  A    between atoms: _484  and  _485
REMARK  197  A    between atoms: _494  and  _496
REMARK  198  A    between atoms: _496  and  _497
REMARK  199  A    between atoms: _496  and  _499
REMARK  200  A    between atoms: _499  and  _500
REMARK  201  A    between atoms: _505  and  _506
REMARK  202  A    between atoms: _508  and  _510
REMARK  203  A    between atoms: _510  and  _511
REMARK  204  A    between atoms: _513  and  _515
REMARK  205  A    between atoms: _515  and  _516
REMARK  206  A    between atoms: _515  and  _518
REMARK  207  A    between atoms: _518  and  _519
REMARK  208  A    between atoms: _524  and  _526
REMARK  209  A    between atoms: _526  and  _527
REMARK  210  A    between atoms: _526  and  _529
REMARK  211  A    between atoms: _529  and  _530
REMARK  212  A    between atoms: _530  and  _531
REMARK  213  A    between atoms: _536  and  _538
REMARK  214  A    between atoms: _538  and  _539
REMARK  215  A    between atoms: _538  and  _541
REMARK  216  A    between atoms: _541  and  _542
REMARK  217  A    between atoms: _548  and  _550
REMARK  218  A    between atoms: _550  and  _551
REMARK  219  A    between atoms: _554  and  _556
REMARK  220  A    between atoms: _556  and  _557
REMARK  221  A    between atoms: _556  and  _559
REMARK  222  A    between atoms: _559  and  _560
REMARK  223  A    between atoms: _565  and  _566
REMARK  224  A    between atoms: _568  and  _570
REMARK  225  A    between atoms: _570  and  _571
REMARK  226  A    between atoms: _570  and  _573
REMARK  227  A    between atoms: _573  and  _574
REMARK  228  A    between atoms: _579  and  _580
REMARK  229  A    between atoms: _582  and  _584
REMARK  230  A    between atoms: _584  and  _585
REMARK  231  A    between atoms: _584  and  _587
REMARK  232  A    between atoms: _587  and  _588
REMARK  233  A    between atoms: _591  and  _593
REMARK  234  A    between atoms: _593  and  _594
REMARK  235  A    between atoms: _593  and  _596
REMARK  236  A    between atoms: _596  and  _597
REMARK  237  A    between atoms: _607  and  _609
REMARK  238  A    between atoms: _609  and  _610
REMARK  239  A    between atoms: _613  and  _615
REMARK  240  A    between atoms: _615  and  _616
REMARK  241  A    between atoms: _619  and  _621
REMARK  242  A    between atoms: _621  and  _622
REMARK  243  A    between atoms: _621  and  _624
REMARK  244  A    between atoms: _624  and  _625
REMARK  245  A    between atoms: _625  and  _626
REMARK  246  A    between atoms: _631  and  _633
REMARK  247  A    between atoms: _633  and  _634
REMARK  248  A    between atoms: _633  and  _636
REMARK  249  A    between atoms: _636  and  _637
REMARK  250  A    between atoms: _640  and  _642
REMARK  251  A    between atoms: _642  and  _643
REMARK  252  A    between atoms: _642  and  _645
REMARK  253  A    between atoms: _645  and  _646
REMARK  254  A    between atoms: _649  and  _651
REMARK  255  A    between atoms: _651  and  _652
REMARK  256  A    between atoms: _651  and  _654
REMARK  257  A    between atoms: _654  and  _655
REMARK  258  A    between atoms: _655  and  _656
REMARK  259  A    between atoms: _661  and  _663
REMARK  260  A    between atoms: _663  and  _664
REMARK  261  A    between atoms: _663  and  _666
REMARK  262  A    between atoms: _666  and  _667
REMARK  263  A    between atoms: _667  and  _668
REMARK  264  A    between atoms: _668  and  _669
REMARK  265  A    between atoms: _678  and  _680
REMARK  266  A    between atoms: _680  and  _681
REMARK  267  A    between atoms: _680  and  _683
REMARK  268  A    between atoms: _683  and  _684
REMARK  269  A    between atoms: _684  and  _685
REMARK  270  A    between atoms: _685  and  _686
REMARK  271  A    between atoms: _686  and  _687
REMARK  272  A    between atoms: _691  and  _693
REMARK  273  A    between atoms: _693  and  _694
REMARK  274  A    between atoms: _693  and  _696
REMARK  275  A    between atoms: _696  and  _697
REMARK  276  A    between atoms: _707  and  _709
REMARK  277  A    between atoms: _709  and  _710
REMARK  278  A    between atoms: _713  and  _715
REMARK  279  A    between atoms: _715  and  _716
REMARK  280  A    between atoms: _719  and  _721
REMARK  281  A    between atoms: _721  and  _722
REMARK  282  A    between atoms: _721  and  _724
REMARK  283  A    between atoms: _724  and  _725
REMARK  284  A    between atoms: _725  and  _726
REMARK  285  A    between atoms: _726  and  _727
REMARK  286  A    between atoms: _736  and  _738
REMARK  287  A    between atoms: _738  and  _739
REMARK  288  A    between atoms: _738  and  _741
REMARK  289  A    between atoms: _744  and  _746
REMARK  290  A    between atoms: _746  and  _747
REMARK  291  A    between atoms: _750  and  _752
REMARK  292  A    between atoms: _752  and  _753
REMARK  293  A    between atoms: _752  and  _755
REMARK  294  A    between atoms: _755  and  _756
REMARK  295  A    between atoms: _756  and  _757
REMARK  296  A    between atoms: _760  and  _762
REMARK  297  A    between atoms: _762  and  _763
REMARK  298  A    between atoms: _762  and  _765
REMARK  299  A    between atoms: _765  and  _766
REMARK  300  A    between atoms: _766  and  _767
REMARK  301  A    between atoms: _772  and  _774
REMARK  302  A    between atoms: _774  and  _775
REMARK  303  A    between atoms: _774  and  _777
REMARK  304  A    between atoms: _777  and  _778
REMARK  305  A    between atoms: _781  and  _783
REMARK  306  A    between atoms: _783  and  _784
REMARK  307  A    between atoms: _783  and  _786
REMARK  308  A    between atoms: _786  and  _787
REMARK  309  A    between atoms: _787  and  _788
REMARK  310  A    between atoms: _788  and  _789
REMARK  311  A    between atoms: _798  and  _800
REMARK  312  A    between atoms: _800  and  _801
REMARK  313  A    between atoms: _800  and  _803
REMARK  314  A    between atoms: _803  and  _804
REMARK  315  A    between atoms: _807  and  _809
REMARK  316  A    between atoms: _809  and  _810
REMARK  317  A    between atoms: _809  and  _812
REMARK  318  A    between atoms: _812  and  _813
REMARK  319  A    between atoms: _818  and  _819
REMARK  320  A    between atoms: _821  and  _823
REMARK  321  A    between atoms: _823  and  _824
REMARK  322  A    between atoms: _823  and  _826
REMARK  323  A    between atoms: _826  and  _827
REMARK  324  A    between atoms: _830  and  _832
REMARK  325  A    between atoms: _832  and  _833
REMARK  326  A    between atoms: _832  and  _835
REMARK  327  A    between atoms: _835  and  _836
REMARK  328  A    between atoms: _839  and  _841
REMARK  329  A    between atoms: _841  and  _842
REMARK  330  A    between atoms: _841  and  _844
REMARK  331  A    between atoms: _846  and  _848
REMARK  332  A    between atoms: _848  and  _849
REMARK  333  A    between atoms: _848  and  _851
REMARK  334  A    between atoms: _854  and  _856
REMARK  335  A    between atoms: _856  and  _857
REMARK  336  A    between atoms: _856  and  _859
REMARK  337  A    between atoms: _859  and  _860
REMARK  338  A    between atoms: _860  and  _861
REMARK  339  A    between atoms: _864  and  _866
REMARK  340  A    between atoms: _866  and  _867
REMARK  341  A    between atoms: _866  and  _869
REMARK  342  A    between atoms: _869  and  _870
REMARK  343  A    between atoms: _880  and  _882
REMARK  344  A    between atoms: _882  and  _883
REMARK  345  A    between atoms: _882  and  _885
REMARK  346  A    between atoms: _885  and  _886
REMARK  347  A    between atoms: _889  and  _891
REMARK  348  A    between atoms: _891  and  _892
REMARK  349  A    between atoms: _891  and  _894
REMARK  350  A    between atoms: _894  and  _895
REMARK  351  A    between atoms: _900  and  _901
REMARK                            x       y       z     vdW  Elec       q    Type
REMARK                         _______ _______ _______ _____ _____    ______ ____
ROOT
ATOM      1  O   HOH     1       6.600  13.610  43.566  0.00  0.00    +0.000 OA
ENDROOT
TORSDOF 0
REMARK  Name = ../refined-set-2016/4o2c/4o2c_pocket.pdb
REMARK  351 active torsions:
REMARK  status: ('A' for Active; 'I' for Inactive)
REMARK    1  A    between atoms: _1  and  _3
REMARK    2  A    between atoms: _3  and  _4
REMARK    3  A    between atoms: _3  and  _6
REMARK    4  A    between atoms: _6  and  _7
REMARK    5  A    between atoms: _7  and  _8
REMARK    6  A    between atoms: _10  and  _12
REMARK    7  A    between atoms: _12  and  _13
REMARK    8  A    between atoms: _12  and  _15
REMARK    9  A    between atoms: _15  and  _16
REMARK   10  A    between atoms: _16  and  _17
REMARK   11  A    between atoms: _17  and  _18
REMARK   12  A    between atoms: _27  and  _29
REMARK   13  A    between atoms: _29  and  _30
REMARK   14  A    between atoms: _29  and  _32
REMARK   15  A    between atoms: _32  and  _33
REMARK   16  A    between atoms: _38  and  _39
REMARK   17  A    between atoms: _41  and  _43
REMARK   18  A    between atoms: _43  and  _44
REMARK   19  A    between atoms: _43  and  _46
REMARK   20  A    between atoms: _46  and  _47
REMARK   21  A    between atoms: _53  and  _55
REMARK   22  A    between atoms: _55  and  _56
REMARK   23  A    between atoms: _55  and  _58
REMARK   24  A    between atoms: _58  and  _59
REMARK   25  A    between atoms: _64  and  _65
REMARK   26  A    between atoms: _67  and  _69
REMARK   27  A    between atoms: _69  and  _70
REMARK   28  A    between atoms: _69  and  _72
REMARK   29  A    between atoms: _72  and  _73
REMARK   30  A    between atoms: _79  and  _81
REMARK   31  A    between atoms: _81  and  _82
REMARK   32  A    between atoms: _81  and  _84
REMARK   33  A    between atoms: _84  and  _85
REMARK   34  A    between atoms: _88  and  _90
REMARK   35  A    between atoms: _90  and  _91
REMARK   36  A    between atoms: _90  and  _93
REMARK   37  A    between atoms: _93  and  _94
REMARK   38  A    between atoms: _96  and  _98
REMARK   39  A    between atoms: _98  and  _99
REMARK   40  A    between atoms: _98  and  _101
REMARK   41  A    between atoms: _104  and  _106
REMARK   42  A    between atoms: _106  and  _107
REMARK   43  A    between atoms: _109  and  _111
REMARK   44  A    between atoms: _111  and  _112
REMARK   45  A    between atoms: _111  and  _114
REMARK   46  A    between atoms: _114  and  _115
REMARK   47  A    between atoms: _121  and  _123
REMARK   48  A    between atoms: _123  and  _124
REMARK   49  A    between atoms: _123  and  _126
REMARK   50  A    between atoms: _129  and  _131
REMARK   51  A    between atoms: _131  and  _132
REMARK   52  A    between atoms: _131  and  _134
REMARK   53  A    between atoms: _134  and  _135
REMARK   54  A    between atoms: _135  and  _136
REMARK   55  A    between atoms: _136  and  _137
REMARK   56  A    between atoms: _146  and  _148
REMARK   57  A    between atoms: _148  and  _149
REMARK   58  A    between atoms: _148  and  _151
REMARK   59  A    between atoms: _151  and  _152
REMARK   60  A    between atoms: _158  and  _160
REMARK   61  A    between atoms: _160  and  _161
REMARK   62  A    between atoms: _160  and  _163
REMARK   63  A    between atoms: _163  and  _164
REMARK   64  A    between atoms: _164  and  _165
REMARK   65  A    between atoms: _168  and  _170
REMARK   66  A    between atoms: _170  and  _171
REMARK   67  A    between atoms: _170  and  _173
REMARK   68  A    between atoms: _173  and  _174
REMARK   69  A    between atoms: _174  and  _175
REMARK   70  A    between atoms: _178  and  _180
REMARK   71  A    between atoms: _180  and  _181
REMARK   72  A    between atoms: _180  and  _183
REMARK   73  A    between atoms: _183  and  _184
REMARK   74  A    between atoms: _187  and  _189
REMARK   75  A    between atoms: _189  and  _190
REMARK   76  A    between atoms: _189  and  _192
REMARK   77  A    between atoms: _192  and  _193
REMARK   78  A    between atoms: _193  and  _194
REMARK   79  A    between atoms: _197  and  _199
REMARK   80  A    between atoms: _199  and  _200
REMARK   81  A    between atoms: _199  and  _202
REMARK   82  A    between atoms: _202  and  _203
REMARK   83  A    between atoms: _203  and  _204
REMARK   84  A    between atoms: _207  and  _209
REMARK   85  A    between atoms: _209  and  _210
REMARK   86  A    between atoms: _209  and  _212
REMARK   87  A    between atoms: _212  and  _213
REMARK   88  A    between atoms: _218  and  _219
REMARK   89  A    between atoms: _221  and  _223
REMARK   90  A    between atoms: _223  and  _224
REMARK   91  A    between atoms: _223  and  _226
REMARK   92  A    between atoms: _226  and  _227
REMARK   93  A    between atoms: _237  and  _239
REMARK   94  A    between atoms: _239  and  _240
REMARK   95  A    between atoms: _239  and  _242
REMARK   96  A    between atoms: _242  and  _243
REMARK   97  A    between atoms: _246  and  _248
REMARK   98  A    between atoms: _248  and  _249
REMARK   99  A    between atoms: _248  and  _251
REMARK  100  A    between atoms: _251  and  _252
REMARK  101  A    between atoms: _252  and  _253
REMARK  102  A    between atoms: _253  and  _254
REMARK  103  A    between atoms: _263  and  _265
REMARK  104  A    between atoms: _265  and  _266
REMARK  105  A    between atoms: _265  and  _268
REMARK  106  A    between atoms: _268  and  _269
REMARK  107  A    between atoms: _274  and  _276
REMARK  108  A    between atoms: _276  and  _277
REMARK  109  A    between atoms: _276  and  _279
REMARK  110  A    between atoms: _279  and  _280
REMARK  111  A    between atoms: _283  and  _285
REMARK  112  A    between atoms: _285  and  _286
REMARK  113  A    between atoms: _285  and  _288
REMARK  114  A    between atoms: _288  and  _289
REMARK  115  A    between atoms: _289  and  _290
REMARK  116  A    between atoms: _295  and  _297
REMARK  117  A    between atoms: _297  and  _298
REMARK  118  A    between atoms: _297  and  _300
REMARK  119  A    between atoms: _300  and  _301
REMARK  120  A    between atoms: _304  and  _306
REMARK  121  A    between atoms: _306  and  _307
REMARK  122  A    between atoms: _306  and  _309
REMARK  123  A    between atoms: _311  and  _313
REMARK  124  A    between atoms: _313  and  _314
REMARK  125  A    between atoms: _313  and  _316
REMARK  126  A    between atoms: _316  and  _317
REMARK  127  A    between atoms: _320  and  _322
REMARK  128  A    between atoms: _322  and  _323
REMARK  129  A    between atoms: _322  and  _325
REMARK  130  A    between atoms: _325  and  _326
REMARK  131  A    between atoms: _331  and  _333
REMARK  132  A    between atoms: _333  and  _334
REMARK  133  A    between atoms: _333  and  _336
REMARK  134  A    between atoms: _336  and  _337
REMARK  135  A    between atoms: _337  and  _338
REMARK  136  A    between atoms: _343  and  _345
REMARK  137  A    between atoms: _345  and  _346
REMARK  138  A    between atoms: _345  and  _348
REMARK  139  A    between atoms: _348  and  _349
REMARK  140  A    between atoms: _352  and  _354
REMARK  141  A    between atoms: _354  and  _355
REMARK  142  A    between atoms: _354  and  _357
REMARK  143  A    between atoms: _357  and  _358
REMARK  144  A    between atoms: _361  and  _363
REMARK  145  A    between atoms: _363  and  _364
REMARK  146  A    between atoms: _363  and  _366
REMARK  147  A    between atoms: _366  and  _367
REMARK  148  A    between atoms: _367  and  _368
REMARK  149  A    between atoms: _368  and  _369
REMARK  150  A    between atoms: _378  and  _380
REMARK  151  A    between atoms: _380  and  _381
REMARK  152  A    between atoms: _380  and  _383
REMARK  153  A    between atoms: _383  and  _384
REMARK  154  A    between atoms: _384  and  _385
REMARK  155  A    between atoms: _388  and  _390
REMARK  156  A    between atoms: _390  and  _391
REMARK  157  A    between atoms: _390  and  _393
REMARK  158  A    between atoms: _393  and  _394
REMARK  159  A    between atoms: _396  and  _398
REMARK  160  A    between atoms: _398  and  _399
REMARK  161  A    between atoms: _398  and  _401
REMARK  162  A    between atoms: _401  and  _402
REMARK  163  A    between atoms: _405  and  _407
REMARK  164  A    between atoms: _407  and  _408
REMARK  165  A    between atoms: _407  and  _410
REMARK  166  A    between atoms: _410  and  _411
REMARK  167  A    between atoms: _411  and  _412
REMARK  168  A    between atoms: _412  and  _413
REMARK  169  A    between atoms: _422  and  _424
REMARK  170  A    between atoms: _424  and  _425
REMARK  171  A    between atoms: _424  and  _427
REMARK  172  A    between atoms: _427  and  _428
REMARK  173  A    between atoms: _433  and  _435
REMARK  174  A    between atoms: _435  and  _436
REMARK  175  A    between atoms: _435  and  _438
REMARK  176  A    between atoms: _438  and  _439
REMARK  177  A    between atoms: _442  and  _444
REMARK  178  A    between atoms: _444  and  _445
REMARK  179  A    between atoms: _444  and  _447
REMARK  180  A    between atoms: _447  and  _448
REMARK  181  A    between atoms: _453  and  _454
REMARK  182  A    between atoms: _456  and  _458
REMARK  183  A    between atoms: _458  and  _459
REMARK  184  A    between atoms: _458  and  _461
REMARK  185  A    between atoms: _461  and  _462
REMARK  186  A    between atoms: _465  and  _467
REMARK  187  A    between atoms: _467  and  _468
REMARK  188  A    between atoms: _467  and  _470
REMARK  189  A    between atoms: _470  and  _471
REMARK  190  A    between atoms: _471  and  _472
REMARK  191  A    between atoms: _477  and  _479
REMARK  192  A    between atoms: _479  and  _480
REMARK  193  A    between atoms: _479  and  _482
REMARK  194  A    between atoms: _482  and  _483
REMARK  195  A    between atoms: _483  and  _484
REMARK  196  A    between atoms: _484  and  _485
REMARK  197  A    between atoms: _494  and  _496
REMARK  198  A    between atoms: _496  and  _497
REMARK  199  A    between atoms: _496  and  _499
REMARK  200  A    between atoms: _499  and  _500
REMARK  201  A    between atoms: _505  and  _506
REMARK  202  A    between atoms: _508  and  _510
REMARK  203  A    between atoms: _510  and  _511
REMARK  204  A    between atoms: _513  and  _515
REMARK  205  A    between atoms: _515  and  _516
REMARK  206  A    between atoms: _515  and  _518
REMARK  207  A    between atoms: _518  and  _519
REMARK  208  A    between atoms: _524  and  _526
REMARK  209  A    between atoms: _526  and  _527
REMARK  210  A    between atoms: _526  and  _529
REMARK  211  A    between atoms: _529  and  _530
REMARK  212  A    between atoms: _530  and  _531
REMARK  213  A    between atoms: _536  and  _538
REMARK  214  A    between atoms: _538  and  _539
REMARK  215  A    between atoms: _538  and  _541
REMARK  216  A    between atoms: _541  and  _542
REMARK  217  A    between atoms: _548  and  _550
REMARK  218  A    between atoms: _550  and  _551
REMARK  219  A    between atoms: _554  and  _556
REMARK  220  A    between atoms: _556  and  _557
REMARK  221  A    between atoms: _556  and  _559
REMARK  222  A    between atoms: _559  and  _560
REMARK  223  A    between atoms: _565  and  _566
REMARK  224  A    between atoms: _568  and  _570
REMARK  225  A    between atoms: _570  and  _571
REMARK  226  A    between atoms: _570  and  _573
REMARK  227  A    between atoms: _573  and  _574
REMARK  228  A    between atoms: _579  and  _580
REMARK  229  A    between atoms: _582  and  _584
REMARK  230  A    between atoms: _584  and  _585
REMARK  231  A    between atoms: _584  and  _587
REMARK  232  A    between atoms: _587  and  _588
REMARK  233  A    between atoms: _591  and  _593
REMARK  234  A    between atoms: _593  and  _594
REMARK  235  A    between atoms: _593  and  _596
REMARK  236  A    between atoms: _596  and  _597
REMARK  237  A    between atoms: _607  and  _609
REMARK  238  A    between atoms: _609  and  _610
REMARK  239  A    between atoms: _613  and  _615
REMARK  240  A    between atoms: _615  and  _616
REMARK  241  A    between atoms: _619  and  _621
REMARK  242  A    between atoms: _621  and  _622
REMARK  243  A    between atoms: _621  and  _624
REMARK  244  A    between atoms: _624  and  _625
REMARK  245  A    between atoms: _625  and  _626
REMARK  246  A    between atoms: _631  and  _633
REMARK  247  A    between atoms: _633  and  _634
REMARK  248  A    between atoms: _633  and  _636
REMARK  249  A    between atoms: _636  and  _637
REMARK  250  A    between atoms: _640  and  _642
REMARK  251  A    between atoms: _642  and  _643
REMARK  252  A    between atoms: _642  and  _645
REMARK  253  A    between atoms: _645  and  _646
REMARK  254  A    between atoms: _649  and  _651
REMARK  255  A    between atoms: _651  and  _652
REMARK  256  A    between atoms: _651  and  _654
REMARK  257  A    between atoms: _654  and  _655
REMARK  258  A    between atoms: _655  and  _656
REMARK  259  A    between atoms: _661  and  _663
REMARK  260  A    between atoms: _663  and  _664
REMARK  261  A    between atoms: _663  and  _666
REMARK  262  A    between atoms: _666  and  _667
REMARK  263  A    between atoms: _667  and  _668
REMARK  264  A    between atoms: _668  and  _669
REMARK  265  A    between atoms: _678  and  _680
REMARK  266  A    between atoms: _680  and  _681
REMARK  267  A    between atoms: _680  and  _683
REMARK  268  A    between atoms: _683  and  _684
REMARK  269  A    between atoms: _684  and  _685
REMARK  270  A    between atoms: _685  and  _686
REMARK  271  A    between atoms: _686  and  _687
REMARK  272  A    between atoms: _691  and  _693
REMARK  273  A    between atoms: _693  and  _694
REMARK  274  A    between atoms: _693  and  _696
REMARK  275  A    between atoms: _696  and  _697
REMARK  276  A    between atoms: _707  and  _709
REMARK  277  A    between atoms: _709  and  _710
REMARK  278  A    between atoms: _713  and  _715
REMARK  279  A    between atoms: _715  and  _716
REMARK  280  A    between atoms: _719  and  _721
REMARK  281  A    between atoms: _721  and  _722
REMARK  282  A    between atoms: _721  and  _724
REMARK  283  A    between atoms: _724  and  _725
REMARK  284  A    between atoms: _725  and  _726
REMARK  285  A    between atoms: _726  and  _727
REMARK  286  A    between atoms: _736  and  _738
REMARK  287  A    between atoms: _738  and  _739
REMARK  288  A    between atoms: _738  and  _741
REMARK  289  A    between atoms: _744  and  _746
REMARK  290  A    between atoms: _746  and  _747
REMARK  291  A    between atoms: _750  and  _752
REMARK  292  A    between atoms: _752  and  _753
REMARK  293  A    between atoms: _752  and  _755
REMARK  294  A    between atoms: _755  and  _756
REMARK  295  A    between atoms: _756  and  _757
REMARK  296  A    between atoms: _760  and  _762
REMARK  297  A    between atoms: _762  and  _763
REMARK  298  A    between atoms: _762  and  _765
REMARK  299  A    between atoms: _765  and  _766
REMARK  300  A    between atoms: _766  and  _767
REMARK  301  A    between atoms: _772  and  _774
REMARK  302  A    between atoms: _774  and  _775
REMARK  303  A    between atoms: _774  and  _777
REMARK  304  A    between atoms: _777  and  _778
REMARK  305  A    between atoms: _781  and  _783
REMARK  306  A    between atoms: _783  and  _784
REMARK  307  A    between atoms: _783  and  _786
REMARK  308  A    between atoms: _786  and  _787
REMARK  309  A    between atoms: _787  and  _788
REMARK  310  A    between atoms: _788  and  _789
REMARK  311  A    between atoms: _798  and  _800
REMARK  312  A    between atoms: _800  and  _801
REMARK  313  A    between atoms: _800  and  _803
REMARK  314  A    between atoms: _803  and  _804
REMARK  315  A    between atoms: _807  and  _809
REMARK  316  A    between atoms: _809  and  _810
REMARK  317  A    between atoms: _809  and  _812
REMARK  318  A    between atoms: _812  and  _813
REMARK  319  A    between atoms: _818  and  _819
REMARK  320  A    between atoms: _821  and  _823
REMARK  321  A    between atoms: _823  and  _824
REMARK  322  A    between atoms: _823  and  _826
REMARK  323  A    between atoms: _826  and  _827
REMARK  324  A    between atoms: _830  and  _832
REMARK  325  A    between atoms: _832  and  _833
REMARK  326  A    between atoms: _832  and  _835
REMARK  327  A    between atoms: _835  and  _836
REMARK  328  A    between atoms: _839  and  _841
REMARK  329  A    between atoms: _841  and  _842
REMARK  330  A    between atoms: _841  and  _844
REMARK  331  A    between atoms: _846  and  _848
REMARK  332  A    between atoms: _848  and  _849
REMARK  333  A    between atoms: _848  and  _851
REMARK  334  A    between atoms: _854  and  _856
REMARK  335  A    between atoms: _856  and  _857
REMARK  336  A    between atoms: _856  and  _859
REMARK  337  A    between atoms: _859  and  _860
REMARK  338  A    between atoms: _860  and  _861
REMARK  339  A    between atoms: _864  and  _866
REMARK  340  A    between atoms: _866  and  _867
REMARK  341  A    between atoms: _866  and  _869
REMARK  342  A    between atoms: _869  and  _870
REMARK  343  A    between atoms: _880  and  _882
REMARK  344  A    between atoms: _882  and  _883
REMARK  345  A    between atoms: _882  and  _885
REMARK  346  A    between atoms: _885  and  _886
REMARK  347  A    between atoms: _889  and  _891
REMARK  348  A    between atoms: _891  and  _892
REMARK  349  A    between atoms: _891  and  _894
REMARK  350  A    between atoms: _894  and  _895
REMARK  351  A    between atoms: _900  and  _901
REMARK                            x       y       z     vdW  Elec       q    Type
REMARK                         _______ _______ _______ _____ _____    ______ ____
ROOT
ATOM      1  O   HOH     1       1.497  21.288  43.314  0.00  0.00    +0.000 OA
ENDROOT
TORSDOF 0
REMARK  Name = ../refined-set-2016/4o2c/4o2c_pocket.pdb
REMARK  351 active torsions:
REMARK  status: ('A' for Active; 'I' for Inactive)
REMARK    1  A    between atoms: _1  and  _3
REMARK    2  A    between atoms: _3  and  _4
REMARK    3  A    between atoms: _3  and  _6
REMARK    4  A    between atoms: _6  and  _7
REMARK    5  A    between atoms: _7  and  _8
REMARK    6  A    between atoms: _10  and  _12
REMARK    7  A    between atoms: _12  and  _13
REMARK    8  A    between atoms: _12  and  _15
REMARK    9  A    between atoms: _15  and  _16
REMARK   10  A    between atoms: _16  and  _17
REMARK   11  A    between atoms: _17  and  _18
REMARK   12  A    between atoms: _27  and  _29
REMARK   13  A    between atoms: _29  and  _30
REMARK   14  A    between atoms: _29  and  _32
REMARK   15  A    between atoms: _32  and  _33
REMARK   16  A    between atoms: _38  and  _39
REMARK   17  A    between atoms: _41  and  _43
REMARK   18  A    between atoms: _43  and  _44
REMARK   19  A    between atoms: _43  and  _46
REMARK   20  A    between atoms: _46  and  _47
REMARK   21  A    between atoms: _53  and  _55
REMARK   22  A    between atoms: _55  and  _56
REMARK   23  A    between atoms: _55  and  _58
REMARK   24  A    between atoms: _58  and  _59
REMARK   25  A    between atoms: _64  and  _65
REMARK   26  A    between atoms: _67  and  _69
REMARK   27  A    between atoms: _69  and  _70
REMARK   28  A    between atoms: _69  and  _72
REMARK   29  A    between atoms: _72  and  _73
REMARK   30  A    between atoms: _79  and  _81
REMARK   31  A    between atoms: _81  and  _82
REMARK   32  A    between atoms: _81  and  _84
REMARK   33  A    between atoms: _84  and  _85
REMARK   34  A    between atoms: _88  and  _90
REMARK   35  A    between atoms: _90  and  _91
REMARK   36  A    between atoms: _90  and  _93
REMARK   37  A    between atoms: _93  and  _94
REMARK   38  A    between atoms: _96  and  _98
REMARK   39  A    between atoms: _98  and  _99
REMARK   40  A    between atoms: _98  and  _101
REMARK   41  A    between atoms: _104  and  _106
REMARK   42  A    between atoms: _106  and  _107
REMARK   43  A    between atoms: _109  and  _111
REMARK   44  A    between atoms: _111  and  _112
REMARK   45  A    between atoms: _111  and  _114
REMARK   46  A    between atoms: _114  and  _115
REMARK   47  A    between atoms: _121  and  _123
REMARK   48  A    between atoms: _123  and  _124
REMARK   49  A    between atoms: _123  and  _126
REMARK   50  A    between atoms: _129  and  _131
REMARK   51  A    between atoms: _131  and  _132
REMARK   52  A    between atoms: _131  and  _134
REMARK   53  A    between atoms: _134  and  _135
REMARK   54  A    between atoms: _135  and  _136
REMARK   55  A    between atoms: _136  and  _137
REMARK   56  A    between atoms: _146  and  _148
REMARK   57  A    between atoms: _148  and  _149
REMARK   58  A    between atoms: _148  and  _151
REMARK   59  A    between atoms: _151  and  _152
REMARK   60  A    between atoms: _158  and  _160
REMARK   61  A    between atoms: _160  and  _161
REMARK   62  A    between atoms: _160  and  _163
REMARK   63  A    between atoms: _163  and  _164
REMARK   64  A    between atoms: _164  and  _165
REMARK   65  A    between atoms: _168  and  _170
REMARK   66  A    between atoms: _170  and  _171
REMARK   67  A    between atoms: _170  and  _173
REMARK   68  A    between atoms: _173  and  _174
REMARK   69  A    between atoms: _174  and  _175
REMARK   70  A    between atoms: _178  and  _180
REMARK   71  A    between atoms: _180  and  _181
REMARK   72  A    between atoms: _180  and  _183
REMARK   73  A    between atoms: _183  and  _184
REMARK   74  A    between atoms: _187  and  _189
REMARK   75  A    between atoms: _189  and  _190
REMARK   76  A    between atoms: _189  and  _192
REMARK   77  A    between atoms: _192  and  _193
REMARK   78  A    between atoms: _193  and  _194
REMARK   79  A    between atoms: _197  and  _199
REMARK   80  A    between atoms: _199  and  _200
REMARK   81  A    between atoms: _199  and  _202
REMARK   82  A    between atoms: _202  and  _203
REMARK   83  A    between atoms: _203  and  _204
REMARK   84  A    between atoms: _207  and  _209
REMARK   85  A    between atoms: _209  and  _210
REMARK   86  A    between atoms: _209  and  _212
REMARK   87  A    between atoms: _212  and  _213
REMARK   88  A    between atoms: _218  and  _219
REMARK   89  A    between atoms: _221  and  _223
REMARK   90  A    between atoms: _223  and  _224
REMARK   91  A    between atoms: _223  and  _226
REMARK   92  A    between atoms: _226  and  _227
REMARK   93  A    between atoms: _237  and  _239
REMARK   94  A    between atoms: _239  and  _240
REMARK   95  A    between atoms: _239  and  _242
REMARK   96  A    between atoms: _242  and  _243
REMARK   97  A    between atoms: _246  and  _248
REMARK   98  A    between atoms: _248  and  _249
REMARK   99  A    between atoms: _248  and  _251
REMARK  100  A    between atoms: _251  and  _252
REMARK  101  A    between atoms: _252  and  _253
REMARK  102  A    between atoms: _253  and  _254
REMARK  103  A    between atoms: _263  and  _265
REMARK  104  A    between atoms: _265  and  _266
REMARK  105  A    between atoms: _265  and  _268
REMARK  106  A    between atoms: _268  and  _269
REMARK  107  A    between atoms: _274  and  _276
REMARK  108  A    between atoms: _276  and  _277
REMARK  109  A    between atoms: _276  and  _279
REMARK  110  A    between atoms: _279  and  _280
REMARK  111  A    between atoms: _283  and  _285
REMARK  112  A    between atoms: _285  and  _286
REMARK  113  A    between atoms: _285  and  _288
REMARK  114  A    between atoms: _288  and  _289
REMARK  115  A    between atoms: _289  and  _290
REMARK  116  A    between atoms: _295  and  _297
REMARK  117  A    between atoms: _297  and  _298
REMARK  118  A    between atoms: _297  and  _300
REMARK  119  A    between atoms: _300  and  _301
REMARK  120  A    between atoms: _304  and  _306
REMARK  121  A    between atoms: _306  and  _307
REMARK  122  A    between atoms: _306  and  _309
REMARK  123  A    between atoms: _311  and  _313
REMARK  124  A    between atoms: _313  and  _314
REMARK  125  A    between atoms: _313  and  _316
REMARK  126  A    between atoms: _316  and  _317
REMARK  127  A    between atoms: _320  and  _322
REMARK  128  A    between atoms: _322  and  _323
REMARK  129  A    between atoms: _322  and  _325
REMARK  130  A    between atoms: _325  and  _326
REMARK  131  A    between atoms: _331  and  _333
REMARK  132  A    between atoms: _333  and  _334
REMARK  133  A    between atoms: _333  and  _336
REMARK  134  A    between atoms: _336  and  _337
REMARK  135  A    between atoms: _337  and  _338
REMARK  136  A    between atoms: _343  and  _345
REMARK  137  A    between atoms: _345  and  _346
REMARK  138  A    between atoms: _345  and  _348
REMARK  139  A    between atoms: _348  and  _349
REMARK  140  A    between atoms: _352  and  _354
REMARK  141  A    between atoms: _354  and  _355
REMARK  142  A    between atoms: _354  and  _357
REMARK  143  A    between atoms: _357  and  _358
REMARK  144  A    between atoms: _361  and  _363
REMARK  145  A    between atoms: _363  and  _364
REMARK  146  A    between atoms: _363  and  _366
REMARK  147  A    between atoms: _366  and  _367
REMARK  148  A    between atoms: _367  and  _368
REMARK  149  A    between atoms: _368  and  _369
REMARK  150  A    between atoms: _378  and  _380
REMARK  151  A    between atoms: _380  and  _381
REMARK  152  A    between atoms: _380  and  _383
REMARK  153  A    between atoms: _383  and  _384
REMARK  154  A    between atoms: _384  and  _385
REMARK  155  A    between atoms: _388  and  _390
REMARK  156  A    between atoms: _390  and  _391
REMARK  157  A    between atoms: _390  and  _393
REMARK  158  A    between atoms: _393  and  _394
REMARK  159  A    between atoms: _396  and  _398
REMARK  160  A    between atoms: _398  and  _399
REMARK  161  A    between atoms: _398  and  _401
REMARK  162  A    between atoms: _401  and  _402
REMARK  163  A    between atoms: _405  and  _407
REMARK  164  A    between atoms: _407  and  _408
REMARK  165  A    between atoms: _407  and  _410
REMARK  166  A    between atoms: _410  and  _411
REMARK  167  A    between atoms: _411  and  _412
REMARK  168  A    between atoms: _412  and  _413
REMARK  169  A    between atoms: _422  and  _424
REMARK  170  A    between atoms: _424  and  _425
REMARK  171  A    between atoms: _424  and  _427
REMARK  172  A    between atoms: _427  and  _428
REMARK  173  A    between atoms: _433  and  _435
REMARK  174  A    between atoms: _435  and  _436
REMARK  175  A    between atoms: _435  and  _438
REMARK  176  A    between atoms: _438  and  _439
REMARK  177  A    between atoms: _442  and  _444
REMARK  178  A    between atoms: _444  and  _445
REMARK  179  A    between atoms: _444  and  _447
REMARK  180  A    between atoms: _447  and  _448
REMARK  181  A    between atoms: _453  and  _454
REMARK  182  A    between atoms: _456  and  _458
REMARK  183  A    between atoms: _458  and  _459
REMARK  184  A    between atoms: _458  and  _461
REMARK  185  A    between atoms: _461  and  _462
REMARK  186  A    between atoms: _465  and  _467
REMARK  187  A    between atoms: _467  and  _468
REMARK  188  A    between atoms: _467  and  _470
REMARK  189  A    between atoms: _470  and  _471
REMARK  190  A    between atoms: _471  and  _472
REMARK  191  A    between atoms: _477  and  _479
REMARK  192  A    between atoms: _479  and  _480
REMARK  193  A    between atoms: _479  and  _482
REMARK  194  A    between atoms: _482  and  _483
REMARK  195  A    between atoms: _483  and  _484
REMARK  196  A    between atoms: _484  and  _485
REMARK  197  A    between atoms: _494  and  _496
REMARK  198  A    between atoms: _496  and  _497
REMARK  199  A    between atoms: _496  and  _499
REMARK  200  A    between atoms: _499  and  _500
REMARK  201  A    between atoms: _505  and  _506
REMARK  202  A    between atoms: _508  and  _510
REMARK  203  A    between atoms: _510  and  _511
REMARK  204  A    between atoms: _513  and  _515
REMARK  205  A    between atoms: _515  and  _516
REMARK  206  A    between atoms: _515  and  _518
REMARK  207  A    between atoms: _518  and  _519
REMARK  208  A    between atoms: _524  and  _526
REMARK  209  A    between atoms: _526  and  _527
REMARK  210  A    between atoms: _526  and  _529
REMARK  211  A    between atoms: _529  and  _530
REMARK  212  A    between atoms: _530  and  _531
REMARK  213  A    between atoms: _536  and  _538
REMARK  214  A    between atoms: _538  and  _539
REMARK  215  A    between atoms: _538  and  _541
REMARK  216  A    between atoms: _541  and  _542
REMARK  217  A    between atoms: _548  and  _550
REMARK  218  A    between atoms: _550  and  _551
REMARK  219  A    between atoms: _554  and  _556
REMARK  220  A    between atoms: _556  and  _557
REMARK  221  A    between atoms: _556  and  _559
REMARK  222  A    between atoms: _559  and  _560
REMARK  223  A    between atoms: _565  and  _566
REMARK  224  A    between atoms: _568  and  _570
REMARK  225  A    between atoms: _570  and  _571
REMARK  226  A    between atoms: _570  and  _573
REMARK  227  A    between atoms: _573  and  _574
REMARK  228  A    between atoms: _579  and  _580
REMARK  229  A    between atoms: _582  and  _584
REMARK  230  A    between atoms: _584  and  _585
REMARK  231  A    between atoms: _584  and  _587
REMARK  232  A    between atoms: _587  and  _588
REMARK  233  A    between atoms: _591  and  _593
REMARK  234  A    between atoms: _593  and  _594
REMARK  235  A    between atoms: _593  and  _596
REMARK  236  A    between atoms: _596  and  _597
REMARK  237  A    between atoms: _607  and  _609
REMARK  238  A    between atoms: _609  and  _610
REMARK  239  A    between atoms: _613  and  _615
REMARK  240  A    between atoms: _615  and  _616
REMARK  241  A    between atoms: _619  and  _621
REMARK  242  A    between atoms: _621  and  _622
REMARK  243  A    between atoms: _621  and  _624
REMARK  244  A    between atoms: _624  and  _625
REMARK  245  A    between atoms: _625  and  _626
REMARK  246  A    between atoms: _631  and  _633
REMARK  247  A    between atoms: _633  and  _634
REMARK  248  A    between atoms: _633  and  _636
REMARK  249  A    between atoms: _636  and  _637
REMARK  250  A    between atoms: _640  and  _642
REMARK  251  A    between atoms: _642  and  _643
REMARK  252  A    between atoms: _642  and  _645
REMARK  253  A    between atoms: _645  and  _646
REMARK  254  A    between atoms: _649  and  _651
REMARK  255  A    between atoms: _651  and  _652
REMARK  256  A    between atoms: _651  and  _654
REMARK  257  A    between atoms: _654  and  _655
REMARK  258  A    between atoms: _655  and  _656
REMARK  259  A    between atoms: _661  and  _663
REMARK  260  A    between atoms: _663  and  _664
REMARK  261  A    between atoms: _663  and  _666
REMARK  262  A    between atoms: _666  and  _667
REMARK  263  A    between atoms: _667  and  _668
REMARK  264  A    between atoms: _668  and  _669
REMARK  265  A    between atoms: _678  and  _680
REMARK  266  A    between atoms: _680  and  _681
REMARK  267  A    between atoms: _680  and  _683
REMARK  268  A    between atoms: _683  and  _684
REMARK  269  A    between atoms: _684  and  _685
REMARK  270  A    between atoms: _685  and  _686
REMARK  271  A    between atoms: _686  and  _687
REMARK  272  A    between atoms: _691  and  _693
REMARK  273  A    between atoms: _693  and  _694
REMARK  274  A    between atoms: _693  and  _696
REMARK  275  A    between atoms: _696  and  _697
REMARK  276  A    between atoms: _707  and  _709
REMARK  277  A    between atoms: _709  and  _710
REMARK  278  A    between atoms: _713  and  _715
REMARK  279  A    between atoms: _715  and  _716
REMARK  280  A    between atoms: _719  and  _721
REMARK  281  A    between atoms: _721  and  _722
REMARK  282  A    between atoms: _721  and  _724
REMARK  283  A    between atoms: _724  and  _725
REMARK  284  A    between atoms: _725  and  _726
REMARK  285  A    between atoms: _726  and  _727
REMARK  286  A    between atoms: _736  and  _738
REMARK  287  A    between atoms: _738  and  _739
REMARK  288  A    between atoms: _738  and  _741
REMARK  289  A    between atoms: _744  and  _746
REMARK  290  A    between atoms: _746  and  _747
REMARK  291  A    between atoms: _750  and  _752
REMARK  292  A    between atoms: _752  and  _753
REMARK  293  A    between atoms: _752  and  _755
REMARK  294  A    between atoms: _755  and  _756
REMARK  295  A    between atoms: _756  and  _757
REMARK  296  A    between atoms: _760  and  _762
REMARK  297  A    between atoms: _762  and  _763
REMARK  298  A    between atoms: _762  and  _765
REMARK  299  A    between atoms: _765  and  _766
REMARK  300  A    between atoms: _766  and  _767
REMARK  301  A    between atoms: _772  and  _774
REMARK  302  A    between atoms: _774  and  _775
REMARK  303  A    between atoms: _774  and  _777
REMARK  304  A    between atoms: _777  and  _778
REMARK  305  A    between atoms: _781  and  _783
REMARK  306  A    between atoms: _783  and  _784
REMARK  307  A    between atoms: _783  and  _786
REMARK  308  A    between atoms: _786  and  _787
REMARK  309  A    between atoms: _787  and  _788
REMARK  310  A    between atoms: _788  and  _789
REMARK  311  A    between atoms: _798  and  _800
REMARK  312  A    between atoms: _800  and  _801
REMARK  313  A    between atoms: _800  and  _803
REMARK  314  A    between atoms: _803  and  _804
REMARK  315  A    between atoms: _807  and  _809
REMARK  316  A    between atoms: _809  and  _810
REMARK  317  A    between atoms: _809  and  _812
REMARK  318  A    between atoms: _812  and  _813
REMARK  319  A    between atoms: _818  and  _819
REMARK  320  A    between atoms: _821  and  _823
REMARK  321  A    between atoms: _823  and  _824
REMARK  322  A    between atoms: _823  and  _826
REMARK  323  A    between atoms: _826  and  _827
REMARK  324  A    between atoms: _830  and  _832
REMARK  325  A    between atoms: _832  and  _833
REMARK  326  A    between atoms: _832  and  _835
REMARK  327  A    between atoms: _835  and  _836
REMARK  328  A    between atoms: _839  and  _841
REMARK  329  A    between atoms: _841  and  _842
REMARK  330  A    between atoms: _841  and  _844
REMARK  331  A    between atoms: _846  and  _848
REMARK  332  A    between atoms: _848  and  _849
REMARK  333  A    between atoms: _848  and  _851
REMARK  334  A    between atoms: _854  and  _856
REMARK  335  A    between atoms: _856  and  _857
REMARK  336  A    between atoms: _856  and  _859
REMARK  337  A    between atoms: _859  and  _860
REMARK  338  A    between atoms: _860  and  _861
REMARK  339  A    between atoms: _864  and  _866
REMARK  340  A    between atoms: _866  and  _867
REMARK  341  A    between atoms: _866  and  _869
REMARK  342  A    between atoms: _869  and  _870
REMARK  343  A    between atoms: _880  and  _882
REMARK  344  A    between atoms: _882  and  _883
REMARK  345  A    between atoms: _882  and  _885
REMARK  346  A    between atoms: _885  and  _886
REMARK  347  A    between atoms: _889  and  _891
REMARK  348  A    between atoms: _891  and  _892
REMARK  349  A    between atoms: _891  and  _894
REMARK  350  A    between atoms: _894  and  _895
REMARK  351  A    between atoms: _900  and  _901
REMARK                            x       y       z     vdW  Elec       q    Type
REMARK                         _______ _______ _______ _____ _____    ______ ____
ROOT
ATOM      1  O   HOH     1     -12.953  18.956  40.594  0.00  0.00    +0.000 OA
ENDROOT
TORSDOF 0
REMARK  Name = ../refined-set-2016/4o2c/4o2c_pocket.pdb
REMARK  351 active torsions:
REMARK  status: ('A' for Active; 'I' for Inactive)
REMARK    1  A    between atoms: _1  and  _3
REMARK    2  A    between atoms: _3  and  _4
REMARK    3  A    between atoms: _3  and  _6
REMARK    4  A    between atoms: _6  and  _7
REMARK    5  A    between atoms: _7  and  _8
REMARK    6  A    between atoms: _10  and  _12
REMARK    7  A    between atoms: _12  and  _13
REMARK    8  A    between atoms: _12  and  _15
REMARK    9  A    between atoms: _15  and  _16
REMARK   10  A    between atoms: _16  and  _17
REMARK   11  A    between atoms: _17  and  _18
REMARK   12  A    between atoms: _27  and  _29
REMARK   13  A    between atoms: _29  and  _30
REMARK   14  A    between atoms: _29  and  _32
REMARK   15  A    between atoms: _32  and  _33
REMARK   16  A    between atoms: _38  and  _39
REMARK   17  A    between atoms: _41  and  _43
REMARK   18  A    between atoms: _43  and  _44
REMARK   19  A    between atoms: _43  and  _46
REMARK   20  A    between atoms: _46  and  _47
REMARK   21  A    between atoms: _53  and  _55
REMARK   22  A    between atoms: _55  and  _56
REMARK   23  A    between atoms: _55  and  _58
REMARK   24  A    between atoms: _58  and  _59
REMARK   25  A    between atoms: _64  and  _65
REMARK   26  A    between atoms: _67  and  _69
REMARK   27  A    between atoms: _69  and  _70
REMARK   28  A    between atoms: _69  and  _72
REMARK   29  A    between atoms: _72  and  _73
REMARK   30  A    between atoms: _79  and  _81
REMARK   31  A    between atoms: _81  and  _82
REMARK   32  A    between atoms: _81  and  _84
REMARK   33  A    between atoms: _84  and  _85
REMARK   34  A    between atoms: _88  and  _90
REMARK   35  A    between atoms: _90  and  _91
REMARK   36  A    between atoms: _90  and  _93
REMARK   37  A    between atoms: _93  and  _94
REMARK   38  A    between atoms: _96  and  _98
REMARK   39  A    between atoms: _98  and  _99
REMARK   40  A    between atoms: _98  and  _101
REMARK   41  A    between atoms: _104  and  _106
REMARK   42  A    between atoms: _106  and  _107
REMARK   43  A    between atoms: _109  and  _111
REMARK   44  A    between atoms: _111  and  _112
REMARK   45  A    between atoms: _111  and  _114
REMARK   46  A    between atoms: _114  and  _115
REMARK   47  A    between atoms: _121  and  _123
REMARK   48  A    between atoms: _123  and  _124
REMARK   49  A    between atoms: _123  and  _126
REMARK   50  A    between atoms: _129  and  _131
REMARK   51  A    between atoms: _131  and  _132
REMARK   52  A    between atoms: _131  and  _134
REMARK   53  A    between atoms: _134  and  _135
REMARK   54  A    between atoms: _135  and  _136
REMARK   55  A    between atoms: _136  and  _137
REMARK   56  A    between atoms: _146  and  _148
REMARK   57  A    between atoms: _148  and  _149
REMARK   58  A    between atoms: _148  and  _151
REMARK   59  A    between atoms: _151  and  _152
REMARK   60  A    between atoms: _158  and  _160
REMARK   61  A    between atoms: _160  and  _161
REMARK   62  A    between atoms: _160  and  _163
REMARK   63  A    between atoms: _163  and  _164
REMARK   64  A    between atoms: _164  and  _165
REMARK   65  A    between atoms: _168  and  _170
REMARK   66  A    between atoms: _170  and  _171
REMARK   67  A    between atoms: _170  and  _173
REMARK   68  A    between atoms: _173  and  _174
REMARK   69  A    between atoms: _174  and  _175
REMARK   70  A    between atoms: _178  and  _180
REMARK   71  A    between atoms: _180  and  _181
REMARK   72  A    between atoms: _180  and  _183
REMARK   73  A    between atoms: _183  and  _184
REMARK   74  A    between atoms: _187  and  _189
REMARK   75  A    between atoms: _189  and  _190
REMARK   76  A    between atoms: _189  and  _192
REMARK   77  A    between atoms: _192  and  _193
REMARK   78  A    between atoms: _193  and  _194
REMARK   79  A    between atoms: _197  and  _199
REMARK   80  A    between atoms: _199  and  _200
REMARK   81  A    between atoms: _199  and  _202
REMARK   82  A    between atoms: _202  and  _203
REMARK   83  A    between atoms: _203  and  _204
REMARK   84  A    between atoms: _207  and  _209
REMARK   85  A    between atoms: _209  and  _210
REMARK   86  A    between atoms: _209  and  _212
REMARK   87  A    between atoms: _212  and  _213
REMARK   88  A    between atoms: _218  and  _219
REMARK   89  A    between atoms: _221  and  _223
REMARK   90  A    between atoms: _223  and  _224
REMARK   91  A    between atoms: _223  and  _226
REMARK   92  A    between atoms: _226  and  _227
REMARK   93  A    between atoms: _237  and  _239
REMARK   94  A    between atoms: _239  and  _240
REMARK   95  A    between atoms: _239  and  _242
REMARK   96  A    between atoms: _242  and  _243
REMARK   97  A    between atoms: _246  and  _248
REMARK   98  A    between atoms: _248  and  _249
REMARK   99  A    between atoms: _248  and  _251
REMARK  100  A    between atoms: _251  and  _252
REMARK  101  A    between atoms: _252  and  _253
REMARK  102  A    between atoms: _253  and  _254
REMARK  103  A    between atoms: _263  and  _265
REMARK  104  A    between atoms: _265  and  _266
REMARK  105  A    between atoms: _265  and  _268
REMARK  106  A    between atoms: _268  and  _269
REMARK  107  A    between atoms: _274  and  _276
REMARK  108  A    between atoms: _276  and  _277
REMARK  109  A    between atoms: _276  and  _279
REMARK  110  A    between atoms: _279  and  _280
REMARK  111  A    between atoms: _283  and  _285
REMARK  112  A    between atoms: _285  and  _286
REMARK  113  A    between atoms: _285  and  _288
REMARK  114  A    between atoms: _288  and  _289
REMARK  115  A    between atoms: _289  and  _290
REMARK  116  A    between atoms: _295  and  _297
REMARK  117  A    between atoms: _297  and  _298
REMARK  118  A    between atoms: _297  and  _300
REMARK  119  A    between atoms: _300  and  _301
REMARK  120  A    between atoms: _304  and  _306
REMARK  121  A    between atoms: _306  and  _307
REMARK  122  A    between atoms: _306  and  _309
REMARK  123  A    between atoms: _311  and  _313
REMARK  124  A    between atoms: _313  and  _314
REMARK  125  A    between atoms: _313  and  _316
REMARK  126  A    between atoms: _316  and  _317
REMARK  127  A    between atoms: _320  and  _322
REMARK  128  A    between atoms: _322  and  _323
REMARK  129  A    between atoms: _322  and  _325
REMARK  130  A    between atoms: _325  and  _326
REMARK  131  A    between atoms: _331  and  _333
REMARK  132  A    between atoms: _333  and  _334
REMARK  133  A    between atoms: _333  and  _336
REMARK  134  A    between atoms: _336  and  _337
REMARK  135  A    between atoms: _337  and  _338
REMARK  136  A    between atoms: _343  and  _345
REMARK  137  A    between atoms: _345  and  _346
REMARK  138  A    between atoms: _345  and  _348
REMARK  139  A    between atoms: _348  and  _349
REMARK  140  A    between atoms: _352  and  _354
REMARK  141  A    between atoms: _354  and  _355
REMARK  142  A    between atoms: _354  and  _357
REMARK  143  A    between atoms: _357  and  _358
REMARK  144  A    between atoms: _361  and  _363
REMARK  145  A    between atoms: _363  and  _364
REMARK  146  A    between atoms: _363  and  _366
REMARK  147  A    between atoms: _366  and  _367
REMARK  148  A    between atoms: _367  and  _368
REMARK  149  A    between atoms: _368  and  _369
REMARK  150  A    between atoms: _378  and  _380
REMARK  151  A    between atoms: _380  and  _381
REMARK  152  A    between atoms: _380  and  _383
REMARK  153  A    between atoms: _383  and  _384
REMARK  154  A    between atoms: _384  and  _385
REMARK  155  A    between atoms: _388  and  _390
REMARK  156  A    between atoms: _390  and  _391
REMARK  157  A    between atoms: _390  and  _393
REMARK  158  A    between atoms: _393  and  _394
REMARK  159  A    between atoms: _396  and  _398
REMARK  160  A    between atoms: _398  and  _399
REMARK  161  A    between atoms: _398  and  _401
REMARK  162  A    between atoms: _401  and  _402
REMARK  163  A    between atoms: _405  and  _407
REMARK  164  A    between atoms: _407  and  _408
REMARK  165  A    between atoms: _407  and  _410
REMARK  166  A    between atoms: _410  and  _411
REMARK  167  A    between atoms: _411  and  _412
REMARK  168  A    between atoms: _412  and  _413
REMARK  169  A    between atoms: _422  and  _424
REMARK  170  A    between atoms: _424  and  _425
REMARK  171  A    between atoms: _424  and  _427
REMARK  172  A    between atoms: _427  and  _428
REMARK  173  A    between atoms: _433  and  _435
REMARK  174  A    between atoms: _435  and  _436
REMARK  175  A    between atoms: _435  and  _438
REMARK  176  A    between atoms: _438  and  _439
REMARK  177  A    between atoms: _442  and  _444
REMARK  178  A    between atoms: _444  and  _445
REMARK  179  A    between atoms: _444  and  _447
REMARK  180  A    between atoms: _447  and  _448
REMARK  181  A    between atoms: _453  and  _454
REMARK  182  A    between atoms: _456  and  _458
REMARK  183  A    between atoms: _458  and  _459
REMARK  184  A    between atoms: _458  and  _461
REMARK  185  A    between atoms: _461  and  _462
REMARK  186  A    between atoms: _465  and  _467
REMARK  187  A    between atoms: _467  and  _468
REMARK  188  A    between atoms: _467  and  _470
REMARK  189  A    between atoms: _470  and  _471
REMARK  190  A    between atoms: _471  and  _472
REMARK  191  A    between atoms: _477  and  _479
REMARK  192  A    between atoms: _479  and  _480
REMARK  193  A    between atoms: _479  and  _482
REMARK  194  A    between atoms: _482  and  _483
REMARK  195  A    between atoms: _483  and  _484
REMARK  196  A    between atoms: _484  and  _485
REMARK  197  A    between atoms: _494  and  _496
REMARK  198  A    between atoms: _496  and  _497
REMARK  199  A    between atoms: _496  and  _499
REMARK  200  A    between atoms: _499  and  _500
REMARK  201  A    between atoms: _505  and  _506
REMARK  202  A    between atoms: _508  and  _510
REMARK  203  A    between atoms: _510  and  _511
REMARK  204  A    between atoms: _513  and  _515
REMARK  205  A    between atoms: _515  and  _516
REMARK  206  A    between atoms: _515  and  _518
REMARK  207  A    between atoms: _518  and  _519
REMARK  208  A    between atoms: _524  and  _526
REMARK  209  A    between atoms: _526  and  _527
REMARK  210  A    between atoms: _526  and  _529
REMARK  211  A    between atoms: _529  and  _530
REMARK  212  A    between atoms: _530  and  _531
REMARK  213  A    between atoms: _536  and  _538
REMARK  214  A    between atoms: _538  and  _539
REMARK  215  A    between atoms: _538  and  _541
REMARK  216  A    between atoms: _541  and  _542
REMARK  217  A    between atoms: _548  and  _550
REMARK  218  A    between atoms: _550  and  _551
REMARK  219  A    between atoms: _554  and  _556
REMARK  220  A    between atoms: _556  and  _557
REMARK  221  A    between atoms: _556  and  _559
REMARK  222  A    between atoms: _559  and  _560
REMARK  223  A    between atoms: _565  and  _566
REMARK  224  A    between atoms: _568  and  _570
REMARK  225  A    between atoms: _570  and  _571
REMARK  226  A    between atoms: _570  and  _573
REMARK  227  A    between atoms: _573  and  _574
REMARK  228  A    between atoms: _579  and  _580
REMARK  229  A    between atoms: _582  and  _584
REMARK  230  A    between atoms: _584  and  _585
REMARK  231  A    between atoms: _584  and  _587
REMARK  232  A    between atoms: _587  and  _588
REMARK  233  A    between atoms: _591  and  _593
REMARK  234  A    between atoms: _593  and  _594
REMARK  235  A    between atoms: _593  and  _596
REMARK  236  A    between atoms: _596  and  _597
REMARK  237  A    between atoms: _607  and  _609
REMARK  238  A    between atoms: _609  and  _610
REMARK  239  A    between atoms: _613  and  _615
REMARK  240  A    between atoms: _615  and  _616
REMARK  241  A    between atoms: _619  and  _621
REMARK  242  A    between atoms: _621  and  _622
REMARK  243  A    between atoms: _621  and  _624
REMARK  244  A    between atoms: _624  and  _625
REMARK  245  A    between atoms: _625  and  _626
REMARK  246  A    between atoms: _631  and  _633
REMARK  247  A    between atoms: _633  and  _634
REMARK  248  A    between atoms: _633  and  _636
REMARK  249  A    between atoms: _636  and  _637
REMARK  250  A    between atoms: _640  and  _642
REMARK  251  A    between atoms: _642  and  _643
REMARK  252  A    between atoms: _642  and  _645
REMARK  253  A    between atoms: _645  and  _646
REMARK  254  A    between atoms: _649  and  _651
REMARK  255  A    between atoms: _651  and  _652
REMARK  256  A    between atoms: _651  and  _654
REMARK  257  A    between atoms: _654  and  _655
REMARK  258  A    between atoms: _655  and  _656
REMARK  259  A    between atoms: _661  and  _663
REMARK  260  A    between atoms: _663  and  _664
REMARK  261  A    between atoms: _663  and  _666
REMARK  262  A    between atoms: _666  and  _667
REMARK  263  A    between atoms: _667  and  _668
REMARK  264  A    between atoms: _668  and  _669
REMARK  265  A    between atoms: _678  and  _680
REMARK  266  A    between atoms: _680  and  _681
REMARK  267  A    between atoms: _680  and  _683
REMARK  268  A    between atoms: _683  and  _684
REMARK  269  A    between atoms: _684  and  _685
REMARK  270  A    between atoms: _685  and  _686
REMARK  271  A    between atoms: _686  and  _687
REMARK  272  A    between atoms: _691  and  _693
REMARK  273  A    between atoms: _693  and  _694
REMARK  274  A    between atoms: _693  and  _696
REMARK  275  A    between atoms: _696  and  _697
REMARK  276  A    between atoms: _707  and  _709
REMARK  277  A    between atoms: _709  and  _710
REMARK  278  A    between atoms: _713  and  _715
REMARK  279  A    between atoms: _715  and  _716
REMARK  280  A    between atoms: _719  and  _721
REMARK  281  A    between atoms: _721  and  _722
REMARK  282  A    between atoms: _721  and  _724
REMARK  283  A    between atoms: _724  and  _725
REMARK  284  A    between atoms: _725  and  _726
REMARK  285  A    between atoms: _726  and  _727
REMARK  286  A    between atoms: _736  and  _738
REMARK  287  A    between atoms: _738  and  _739
REMARK  288  A    between atoms: _738  and  _741
REMARK  289  A    between atoms: _744  and  _746
REMARK  290  A    between atoms: _746  and  _747
REMARK  291  A    between atoms: _750  and  _752
REMARK  292  A    between atoms: _752  and  _753
REMARK  293  A    between atoms: _752  and  _755
REMARK  294  A    between atoms: _755  and  _756
REMARK  295  A    between atoms: _756  and  _757
REMARK  296  A    between atoms: _760  and  _762
REMARK  297  A    between atoms: _762  and  _763
REMARK  298  A    between atoms: _762  and  _765
REMARK  299  A    between atoms: _765  and  _766
REMARK  300  A    between atoms: _766  and  _767
REMARK  301  A    between atoms: _772  and  _774
REMARK  302  A    between atoms: _774  and  _775
REMARK  303  A    between atoms: _774  and  _777
REMARK  304  A    between atoms: _777  and  _778
REMARK  305  A    between atoms: _781  and  _783
REMARK  306  A    between atoms: _783  and  _784
REMARK  307  A    between atoms: _783  and  _786
REMARK  308  A    between atoms: _786  and  _787
REMARK  309  A    between atoms: _787  and  _788
REMARK  310  A    between atoms: _788  and  _789
REMARK  311  A    between atoms: _798  and  _800
REMARK  312  A    between atoms: _800  and  _801
REMARK  313  A    between atoms: _800  and  _803
REMARK  314  A    between atoms: _803  and  _804
REMARK  315  A    between atoms: _807  and  _809
REMARK  316  A    between atoms: _809  and  _810
REMARK  317  A    between atoms: _809  and  _812
REMARK  318  A    between atoms: _812  and  _813
REMARK  319  A    between atoms: _818  and  _819
REMARK  320  A    between atoms: _821  and  _823
REMARK  321  A    between atoms: _823  and  _824
REMARK  322  A    between atoms: _823  and  _826
REMARK  323  A    between atoms: _826  and  _827
REMARK  324  A    between atoms: _830  and  _832
REMARK  325  A    between atoms: _832  and  _833
REMARK  326  A    between atoms: _832  and  _835
REMARK  327  A    between atoms: _835  and  _836
REMARK  328  A    between atoms: _839  and  _841
REMARK  329  A    between atoms: _841  and  _842
REMARK  330  A    between atoms: _841  and  _844
REMARK  331  A    between atoms: _846  and  _848
REMARK  332  A    between atoms: _848  and  _849
REMARK  333  A    between atoms: _848  and  _851
REMARK  334  A    between atoms: _854  and  _856
REMARK  335  A    between atoms: _856  and  _857
REMARK  336  A    between atoms: _856  and  _859
REMARK  337  A    between atoms: _859  and  _860
REMARK  338  A    between atoms: _860  and  _861
REMARK  339  A    between atoms: _864  and  _866
REMARK  340  A    between atoms: _866  and  _867
REMARK  341  A    between atoms: _866  and  _869
REMARK  342  A    between atoms: _869  and  _870
REMARK  343  A    between atoms: _880  and  _882
REMARK  344  A    between atoms: _882  and  _883
REMARK  345  A    between atoms: _882  and  _885
REMARK  346  A    between atoms: _885  and  _886
REMARK  347  A    between atoms: _889  and  _891
REMARK  348  A    between atoms: _891  and  _892
REMARK  349  A    between atoms: _891  and  _894
REMARK  350  A    between atoms: _894  and  _895
REMARK  351  A    between atoms: _900  and  _901
REMARK                            x       y       z     vdW  Elec       q    Type
REMARK                         _______ _______ _______ _____ _____    ______ ____
ROOT
ATOM      1  O   HOH     1       2.782  20.215  41.124  0.00  0.00    +0.000 OA
ENDROOT
TORSDOF 0
REMARK  Name = ../refined-set-2016/4o2c/4o2c_pocket.pdb
REMARK  351 active torsions:
REMARK  status: ('A' for Active; 'I' for Inactive)
REMARK    1  A    between atoms: _1  and  _3
REMARK    2  A    between atoms: _3  and  _4
REMARK    3  A    between atoms: _3  and  _6
REMARK    4  A    between atoms: _6  and  _7
REMARK    5  A    between atoms: _7  and  _8
REMARK    6  A    between atoms: _10  and  _12
REMARK    7  A    between atoms: _12  and  _13
REMARK    8  A    between atoms: _12  and  _15
REMARK    9  A    between atoms: _15  and  _16
REMARK   10  A    between atoms: _16  and  _17
REMARK   11  A    between atoms: _17  and  _18
REMARK   12  A    between atoms: _27  and  _29
REMARK   13  A    between atoms: _29  and  _30
REMARK   14  A    between atoms: _29  and  _32
REMARK   15  A    between atoms: _32  and  _33
REMARK   16  A    between atoms: _38  and  _39
REMARK   17  A    between atoms: _41  and  _43
REMARK   18  A    between atoms: _43  and  _44
REMARK   19  A    between atoms: _43  and  _46
REMARK   20  A    between atoms: _46  and  _47
REMARK   21  A    between atoms: _53  and  _55
REMARK   22  A    between atoms: _55  and  _56
REMARK   23  A    between atoms: _55  and  _58
REMARK   24  A    between atoms: _58  and  _59
REMARK   25  A    between atoms: _64  and  _65
REMARK   26  A    between atoms: _67  and  _69
REMARK   27  A    between atoms: _69  and  _70
REMARK   28  A    between atoms: _69  and  _72
REMARK   29  A    between atoms: _72  and  _73
REMARK   30  A    between atoms: _79  and  _81
REMARK   31  A    between atoms: _81  and  _82
REMARK   32  A    between atoms: _81  and  _84
REMARK   33  A    between atoms: _84  and  _85
REMARK   34  A    between atoms: _88  and  _90
REMARK   35  A    between atoms: _90  and  _91
REMARK   36  A    between atoms: _90  and  _93
REMARK   37  A    between atoms: _93  and  _94
REMARK   38  A    between atoms: _96  and  _98
REMARK   39  A    between atoms: _98  and  _99
REMARK   40  A    between atoms: _98  and  _101
REMARK   41  A    between atoms: _104  and  _106
REMARK   42  A    between atoms: _106  and  _107
REMARK   43  A    between atoms: _109  and  _111
REMARK   44  A    between atoms: _111  and  _112
REMARK   45  A    between atoms: _111  and  _114
REMARK   46  A    between atoms: _114  and  _115
REMARK   47  A    between atoms: _121  and  _123
REMARK   48  A    between atoms: _123  and  _124
REMARK   49  A    between atoms: _123  and  _126
REMARK   50  A    between atoms: _129  and  _131
REMARK   51  A    between atoms: _131  and  _132
REMARK   52  A    between atoms: _131  and  _134
REMARK   53  A    between atoms: _134  and  _135
REMARK   54  A    between atoms: _135  and  _136
REMARK   55  A    between atoms: _136  and  _137
REMARK   56  A    between atoms: _146  and  _148
REMARK   57  A    between atoms: _148  and  _149
REMARK   58  A    between atoms: _148  and  _151
REMARK   59  A    between atoms: _151  and  _152
REMARK   60  A    between atoms: _158  and  _160
REMARK   61  A    between atoms: _160  and  _161
REMARK   62  A    between atoms: _160  and  _163
REMARK   63  A    between atoms: _163  and  _164
REMARK   64  A    between atoms: _164  and  _165
REMARK   65  A    between atoms: _168  and  _170
REMARK   66  A    between atoms: _170  and  _171
REMARK   67  A    between atoms: _170  and  _173
REMARK   68  A    between atoms: _173  and  _174
REMARK   69  A    between atoms: _174  and  _175
REMARK   70  A    between atoms: _178  and  _180
REMARK   71  A    between atoms: _180  and  _181
REMARK   72  A    between atoms: _180  and  _183
REMARK   73  A    between atoms: _183  and  _184
REMARK   74  A    between atoms: _187  and  _189
REMARK   75  A    between atoms: _189  and  _190
REMARK   76  A    between atoms: _189  and  _192
REMARK   77  A    between atoms: _192  and  _193
REMARK   78  A    between atoms: _193  and  _194
REMARK   79  A    between atoms: _197  and  _199
REMARK   80  A    between atoms: _199  and  _200
REMARK   81  A    between atoms: _199  and  _202
REMARK   82  A    between atoms: _202  and  _203
REMARK   83  A    between atoms: _203  and  _204
REMARK   84  A    between atoms: _207  and  _209
REMARK   85  A    between atoms: _209  and  _210
REMARK   86  A    between atoms: _209  and  _212
REMARK   87  A    between atoms: _212  and  _213
REMARK   88  A    between atoms: _218  and  _219
REMARK   89  A    between atoms: _221  and  _223
REMARK   90  A    between atoms: _223  and  _224
REMARK   91  A    between atoms: _223  and  _226
REMARK   92  A    between atoms: _226  and  _227
REMARK   93  A    between atoms: _237  and  _239
REMARK   94  A    between atoms: _239  and  _240
REMARK   95  A    between atoms: _239  and  _242
REMARK   96  A    between atoms: _242  and  _243
REMARK   97  A    between atoms: _246  and  _248
REMARK   98  A    between atoms: _248  and  _249
REMARK   99  A    between atoms: _248  and  _251
REMARK  100  A    between atoms: _251  and  _252
REMARK  101  A    between atoms: _252  and  _253
REMARK  102  A    between atoms: _253  and  _254
REMARK  103  A    between atoms: _263  and  _265
REMARK  104  A    between atoms: _265  and  _266
REMARK  105  A    between atoms: _265  and  _268
REMARK  106  A    between atoms: _268  and  _269
REMARK  107  A    between atoms: _274  and  _276
REMARK  108  A    between atoms: _276  and  _277
REMARK  109  A    between atoms: _276  and  _279
REMARK  110  A    between atoms: _279  and  _280
REMARK  111  A    between atoms: _283  and  _285
REMARK  112  A    between atoms: _285  and  _286
REMARK  113  A    between atoms: _285  and  _288
REMARK  114  A    between atoms: _288  and  _289
REMARK  115  A    between atoms: _289  and  _290
REMARK  116  A    between atoms: _295  and  _297
REMARK  117  A    between atoms: _297  and  _298
REMARK  118  A    between atoms: _297  and  _300
REMARK  119  A    between atoms: _300  and  _301
REMARK  120  A    between atoms: _304  and  _306
REMARK  121  A    between atoms: _306  and  _307
REMARK  122  A    between atoms: _306  and  _309
REMARK  123  A    between atoms: _311  and  _313
REMARK  124  A    between atoms: _313  and  _314
REMARK  125  A    between atoms: _313  and  _316
REMARK  126  A    between atoms: _316  and  _317
REMARK  127  A    between atoms: _320  and  _322
REMARK  128  A    between atoms: _322  and  _323
REMARK  129  A    between atoms: _322  and  _325
REMARK  130  A    between atoms: _325  and  _326
REMARK  131  A    between atoms: _331  and  _333
REMARK  132  A    between atoms: _333  and  _334
REMARK  133  A    between atoms: _333  and  _336
REMARK  134  A    between atoms: _336  and  _337
REMARK  135  A    between atoms: _337  and  _338
REMARK  136  A    between atoms: _343  and  _345
REMARK  137  A    between atoms: _345  and  _346
REMARK  138  A    between atoms: _345  and  _348
REMARK  139  A    between atoms: _348  and  _349
REMARK  140  A    between atoms: _352  and  _354
REMARK  141  A    between atoms: _354  and  _355
REMARK  142  A    between atoms: _354  and  _357
REMARK  143  A    between atoms: _357  and  _358
REMARK  144  A    between atoms: _361  and  _363
REMARK  145  A    between atoms: _363  and  _364
REMARK  146  A    between atoms: _363  and  _366
REMARK  147  A    between atoms: _366  and  _367
REMARK  148  A    between atoms: _367  and  _368
REMARK  149  A    between atoms: _368  and  _369
REMARK  150  A    between atoms: _378  and  _380
REMARK  151  A    between atoms: _380  and  _381
REMARK  152  A    between atoms: _380  and  _383
REMARK  153  A    between atoms: _383  and  _384
REMARK  154  A    between atoms: _384  and  _385
REMARK  155  A    between atoms: _388  and  _390
REMARK  156  A    between atoms: _390  and  _391
REMARK  157  A    between atoms: _390  and  _393
REMARK  158  A    between atoms: _393  and  _394
REMARK  159  A    between atoms: _396  and  _398
REMARK  160  A    between atoms: _398  and  _399
REMARK  161  A    between atoms: _398  and  _401
REMARK  162  A    between atoms: _401  and  _402
REMARK  163  A    between atoms: _405  and  _407
REMARK  164  A    between atoms: _407  and  _408
REMARK  165  A    between atoms: _407  and  _410
REMARK  166  A    between atoms: _410  and  _411
REMARK  167  A    between atoms: _411  and  _412
REMARK  168  A    between atoms: _412  and  _413
REMARK  169  A    between atoms: _422  and  _424
REMARK  170  A    between atoms: _424  and  _425
REMARK  171  A    between atoms: _424  and  _427
REMARK  172  A    between atoms: _427  and  _428
REMARK  173  A    between atoms: _433  and  _435
REMARK  174  A    between atoms: _435  and  _436
REMARK  175  A    between atoms: _435  and  _438
REMARK  176  A    between atoms: _438  and  _439
REMARK  177  A    between atoms: _442  and  _444
REMARK  178  A    between atoms: _444  and  _445
REMARK  179  A    between atoms: _444  and  _447
REMARK  180  A    between atoms: _447  and  _448
REMARK  181  A    between atoms: _453  and  _454
REMARK  182  A    between atoms: _456  and  _458
REMARK  183  A    between atoms: _458  and  _459
REMARK  184  A    between atoms: _458  and  _461
REMARK  185  A    between atoms: _461  and  _462
REMARK  186  A    between atoms: _465  and  _467
REMARK  187  A    between atoms: _467  and  _468
REMARK  188  A    between atoms: _467  and  _470
REMARK  189  A    between atoms: _470  and  _471
REMARK  190  A    between atoms: _471  and  _472
REMARK  191  A    between atoms: _477  and  _479
REMARK  192  A    between atoms: _479  and  _480
REMARK  193  A    between atoms: _479  and  _482
REMARK  194  A    between atoms: _482  and  _483
REMARK  195  A    between atoms: _483  and  _484
REMARK  196  A    between atoms: _484  and  _485
REMARK  197  A    between atoms: _494  and  _496
REMARK  198  A    between atoms: _496  and  _497
REMARK  199  A    between atoms: _496  and  _499
REMARK  200  A    between atoms: _499  and  _500
REMARK  201  A    between atoms: _505  and  _506
REMARK  202  A    between atoms: _508  and  _510
REMARK  203  A    between atoms: _510  and  _511
REMARK  204  A    between atoms: _513  and  _515
REMARK  205  A    between atoms: _515  and  _516
REMARK  206  A    between atoms: _515  and  _518
REMARK  207  A    between atoms: _518  and  _519
REMARK  208  A    between atoms: _524  and  _526
REMARK  209  A    between atoms: _526  and  _527
REMARK  210  A    between atoms: _526  and  _529
REMARK  211  A    between atoms: _529  and  _530
REMARK  212  A    between atoms: _530  and  _531
REMARK  213  A    between atoms: _536  and  _538
REMARK  214  A    between atoms: _538  and  _539
REMARK  215  A    between atoms: _538  and  _541
REMARK  216  A    between atoms: _541  and  _542
REMARK  217  A    between atoms: _548  and  _550
REMARK  218  A    between atoms: _550  and  _551
REMARK  219  A    between atoms: _554  and  _556
REMARK  220  A    between atoms: _556  and  _557
REMARK  221  A    between atoms: _556  and  _559
REMARK  222  A    between atoms: _559  and  _560
REMARK  223  A    between atoms: _565  and  _566
REMARK  224  A    between atoms: _568  and  _570
REMARK  225  A    between atoms: _570  and  _571
REMARK  226  A    between atoms: _570  and  _573
REMARK  227  A    between atoms: _573  and  _574
REMARK  228  A    between atoms: _579  and  _580
REMARK  229  A    between atoms: _582  and  _584
REMARK  230  A    between atoms: _584  and  _585
REMARK  231  A    between atoms: _584  and  _587
REMARK  232  A    between atoms: _587  and  _588
REMARK  233  A    between atoms: _591  and  _593
REMARK  234  A    between atoms: _593  and  _594
REMARK  235  A    between atoms: _593  and  _596
REMARK  236  A    between atoms: _596  and  _597
REMARK  237  A    between atoms: _607  and  _609
REMARK  238  A    between atoms: _609  and  _610
REMARK  239  A    between atoms: _613  and  _615
REMARK  240  A    between atoms: _615  and  _616
REMARK  241  A    between atoms: _619  and  _621
REMARK  242  A    between atoms: _621  and  _622
REMARK  243  A    between atoms: _621  and  _624
REMARK  244  A    between atoms: _624  and  _625
REMARK  245  A    between atoms: _625  and  _626
REMARK  246  A    between atoms: _631  and  _633
REMARK  247  A    between atoms: _633  and  _634
REMARK  248  A    between atoms: _633  and  _636
REMARK  249  A    between atoms: _636  and  _637
REMARK  250  A    between atoms: _640  and  _642
REMARK  251  A    between atoms: _642  and  _643
REMARK  252  A    between atoms: _642  and  _645
REMARK  253  A    between atoms: _645  and  _646
REMARK  254  A    between atoms: _649  and  _651
REMARK  255  A    between atoms: _651  and  _652
REMARK  256  A    between atoms: _651  and  _654
REMARK  257  A    between atoms: _654  and  _655
REMARK  258  A    between atoms: _655  and  _656
REMARK  259  A    between atoms: _661  and  _663
REMARK  260  A    between atoms: _663  and  _664
REMARK  261  A    between atoms: _663  and  _666
REMARK  262  A    between atoms: _666  and  _667
REMARK  263  A    between atoms: _667  and  _668
REMARK  264  A    between atoms: _668  and  _669
REMARK  265  A    between atoms: _678  and  _680
REMARK  266  A    between atoms: _680  and  _681
REMARK  267  A    between atoms: _680  and  _683
REMARK  268  A    between atoms: _683  and  _684
REMARK  269  A    between atoms: _684  and  _685
REMARK  270  A    between atoms: _685  and  _686
REMARK  271  A    between atoms: _686  and  _687
REMARK  272  A    between atoms: _691  and  _693
REMARK  273  A    between atoms: _693  and  _694
REMARK  274  A    between atoms: _693  and  _696
REMARK  275  A    between atoms: _696  and  _697
REMARK  276  A    between atoms: _707  and  _709
REMARK  277  A    between atoms: _709  and  _710
REMARK  278  A    between atoms: _713  and  _715
REMARK  279  A    between atoms: _715  and  _716
REMARK  280  A    between atoms: _719  and  _721
REMARK  281  A    between atoms: _721  and  _722
REMARK  282  A    between atoms: _721  and  _724
REMARK  283  A    between atoms: _724  and  _725
REMARK  284  A    between atoms: _725  and  _726
REMARK  285  A    between atoms: _726  and  _727
REMARK  286  A    between atoms: _736  and  _738
REMARK  287  A    between atoms: _738  and  _739
REMARK  288  A    between atoms: _738  and  _741
REMARK  289  A    between atoms: _744  and  _746
REMARK  290  A    between atoms: _746  and  _747
REMARK  291  A    between atoms: _750  and  _752
REMARK  292  A    between atoms: _752  and  _753
REMARK  293  A    between atoms: _752  and  _755
REMARK  294  A    between atoms: _755  and  _756
REMARK  295  A    between atoms: _756  and  _757
REMARK  296  A    between atoms: _760  and  _762
REMARK  297  A    between atoms: _762  and  _763
REMARK  298  A    between atoms: _762  and  _765
REMARK  299  A    between atoms: _765  and  _766
REMARK  300  A    between atoms: _766  and  _767
REMARK  301  A    between atoms: _772  and  _774
REMARK  302  A    between atoms: _774  and  _775
REMARK  303  A    between atoms: _774  and  _777
REMARK  304  A    between atoms: _777  and  _778
REMARK  305  A    between atoms: _781  and  _783
REMARK  306  A    between atoms: _783  and  _784
REMARK  307  A    between atoms: _783  and  _786
REMARK  308  A    between atoms: _786  and  _787
REMARK  309  A    between atoms: _787  and  _788
REMARK  310  A    between atoms: _788  and  _789
REMARK  311  A    between atoms: _798  and  _800
REMARK  312  A    between atoms: _800  and  _801
REMARK  313  A    between atoms: _800  and  _803
REMARK  314  A    between atoms: _803  and  _804
REMARK  315  A    between atoms: _807  and  _809
REMARK  316  A    between atoms: _809  and  _810
REMARK  317  A    between atoms: _809  and  _812
REMARK  318  A    between atoms: _812  and  _813
REMARK  319  A    between atoms: _818  and  _819
REMARK  320  A    between atoms: _821  and  _823
REMARK  321  A    between atoms: _823  and  _824
REMARK  322  A    between atoms: _823  and  _826
REMARK  323  A    between atoms: _826  and  _827
REMARK  324  A    between atoms: _830  and  _832
REMARK  325  A    between atoms: _832  and  _833
REMARK  326  A    between atoms: _832  and  _835
REMARK  327  A    between atoms: _835  and  _836
REMARK  328  A    between atoms: _839  and  _841
REMARK  329  A    between atoms: _841  and  _842
REMARK  330  A    between atoms: _841  and  _844
REMARK  331  A    between atoms: _846  and  _848
REMARK  332  A    between atoms: _848  and  _849
REMARK  333  A    between atoms: _848  and  _851
REMARK  334  A    between atoms: _854  and  _856
REMARK  335  A    between atoms: _856  and  _857
REMARK  336  A    between atoms: _856  and  _859
REMARK  337  A    between atoms: _859  and  _860
REMARK  338  A    between atoms: _860  and  _861
REMARK  339  A    between atoms: _864  and  _866
REMARK  340  A    between atoms: _866  and  _867
REMARK  341  A    between atoms: _866  and  _869
REMARK  342  A    between atoms: _869  and  _870
REMARK  343  A    between atoms: _880  and  _882
REMARK  344  A    between atoms: _882  and  _883
REMARK  345  A    between atoms: _882  and  _885
REMARK  346  A    between atoms: _885  and  _886
REMARK  347  A    between atoms: _889  and  _891
REMARK  348  A    between atoms: _891  and  _892
REMARK  349  A    between atoms: _891  and  _894
REMARK  350  A    between atoms: _894  and  _895
REMARK  351  A    between atoms: _900  and  _901
REMARK                            x       y       z     vdW  Elec       q    Type
REMARK                         _______ _______ _______ _____ _____    ______ ____
ROOT
ATOM      1  O   HOH     1      15.543  18.017  42.933  0.00  0.00    +0.000 OA
ENDROOT
TORSDOF 0
REMARK  Name = ../refined-set-2016/4o2c/4o2c_pocket.pdb
REMARK  351 active torsions:
REMARK  status: ('A' for Active; 'I' for Inactive)
REMARK    1  A    between atoms: _1  and  _3
REMARK    2  A    between atoms: _3  and  _4
REMARK    3  A    between atoms: _3  and  _6
REMARK    4  A    between atoms: _6  and  _7
REMARK    5  A    between atoms: _7  and  _8
REMARK    6  A    between atoms: _10  and  _12
REMARK    7  A    between atoms: _12  and  _13
REMARK    8  A    between atoms: _12  and  _15
REMARK    9  A    between atoms: _15  and  _16
REMARK   10  A    between atoms: _16  and  _17
REMARK   11  A    between atoms: _17  and  _18
REMARK   12  A    between atoms: _27  and  _29
REMARK   13  A    between atoms: _29  and  _30
REMARK   14  A    between atoms: _29  and  _32
REMARK   15  A    between atoms: _32  and  _33
REMARK   16  A    between atoms: _38  and  _39
REMARK   17  A    between atoms: _41  and  _43
REMARK   18  A    between atoms: _43  and  _44
REMARK   19  A    between atoms: _43  and  _46
REMARK   20  A    between atoms: _46  and  _47
REMARK   21  A    between atoms: _53  and  _55
REMARK   22  A    between atoms: _55  and  _56
REMARK   23  A    between atoms: _55  and  _58
REMARK   24  A    between atoms: _58  and  _59
REMARK   25  A    between atoms: _64  and  _65
REMARK   26  A    between atoms: _67  and  _69
REMARK   27  A    between atoms: _69  and  _70
REMARK   28  A    between atoms: _69  and  _72
REMARK   29  A    between atoms: _72  and  _73
REMARK   30  A    between atoms: _79  and  _81
REMARK   31  A    between atoms: _81  and  _82
REMARK   32  A    between atoms: _81  and  _84
REMARK   33  A    between atoms: _84  and  _85
REMARK   34  A    between atoms: _88  and  _90
REMARK   35  A    between atoms: _90  and  _91
REMARK   36  A    between atoms: _90  and  _93
REMARK   37  A    between atoms: _93  and  _94
REMARK   38  A    between atoms: _96  and  _98
REMARK   39  A    between atoms: _98  and  _99
REMARK   40  A    between atoms: _98  and  _101
REMARK   41  A    between atoms: _104  and  _106
REMARK   42  A    between atoms: _106  and  _107
REMARK   43  A    between atoms: _109  and  _111
REMARK   44  A    between atoms: _111  and  _112
REMARK   45  A    between atoms: _111  and  _114
REMARK   46  A    between atoms: _114  and  _115
REMARK   47  A    between atoms: _121  and  _123
REMARK   48  A    between atoms: _123  and  _124
REMARK   49  A    between atoms: _123  and  _126
REMARK   50  A    between atoms: _129  and  _131
REMARK   51  A    between atoms: _131  and  _132
REMARK   52  A    between atoms: _131  and  _134
REMARK   53  A    between atoms: _134  and  _135
REMARK   54  A    between atoms: _135  and  _136
REMARK   55  A    between atoms: _136  and  _137
REMARK   56  A    between atoms: _146  and  _148
REMARK   57  A    between atoms: _148  and  _149
REMARK   58  A    between atoms: _148  and  _151
REMARK   59  A    between atoms: _151  and  _152
REMARK   60  A    between atoms: _158  and  _160
REMARK   61  A    between atoms: _160  and  _161
REMARK   62  A    between atoms: _160  and  _163
REMARK   63  A    between atoms: _163  and  _164
REMARK   64  A    between atoms: _164  and  _165
REMARK   65  A    between atoms: _168  and  _170
REMARK   66  A    between atoms: _170  and  _171
REMARK   67  A    between atoms: _170  and  _173
REMARK   68  A    between atoms: _173  and  _174
REMARK   69  A    between atoms: _174  and  _175
REMARK   70  A    between atoms: _178  and  _180
REMARK   71  A    between atoms: _180  and  _181
REMARK   72  A    between atoms: _180  and  _183
REMARK   73  A    between atoms: _183  and  _184
REMARK   74  A    between atoms: _187  and  _189
REMARK   75  A    between atoms: _189  and  _190
REMARK   76  A    between atoms: _189  and  _192
REMARK   77  A    between atoms: _192  and  _193
REMARK   78  A    between atoms: _193  and  _194
REMARK   79  A    between atoms: _197  and  _199
REMARK   80  A    between atoms: _199  and  _200
REMARK   81  A    between atoms: _199  and  _202
REMARK   82  A    between atoms: _202  and  _203
REMARK   83  A    between atoms: _203  and  _204
REMARK   84  A    between atoms: _207  and  _209
REMARK   85  A    between atoms: _209  and  _210
REMARK   86  A    between atoms: _209  and  _212
REMARK   87  A    between atoms: _212  and  _213
REMARK   88  A    between atoms: _218  and  _219
REMARK   89  A    between atoms: _221  and  _223
REMARK   90  A    between atoms: _223  and  _224
REMARK   91  A    between atoms: _223  and  _226
REMARK   92  A    between atoms: _226  and  _227
REMARK   93  A    between atoms: _237  and  _239
REMARK   94  A    between atoms: _239  and  _240
REMARK   95  A    between atoms: _239  and  _242
REMARK   96  A    between atoms: _242  and  _243
REMARK   97  A    between atoms: _246  and  _248
REMARK   98  A    between atoms: _248  and  _249
REMARK   99  A    between atoms: _248  and  _251
REMARK  100  A    between atoms: _251  and  _252
REMARK  101  A    between atoms: _252  and  _253
REMARK  102  A    between atoms: _253  and  _254
REMARK  103  A    between atoms: _263  and  _265
REMARK  104  A    between atoms: _265  and  _266
REMARK  105  A    between atoms: _265  and  _268
REMARK  106  A    between atoms: _268  and  _269
REMARK  107  A    between atoms: _274  and  _276
REMARK  108  A    between atoms: _276  and  _277
REMARK  109  A    between atoms: _276  and  _279
REMARK  110  A    between atoms: _279  and  _280
REMARK  111  A    between atoms: _283  and  _285
REMARK  112  A    between atoms: _285  and  _286
REMARK  113  A    between atoms: _285  and  _288
REMARK  114  A    between atoms: _288  and  _289
REMARK  115  A    between atoms: _289  and  _290
REMARK  116  A    between atoms: _295  and  _297
REMARK  117  A    between atoms: _297  and  _298
REMARK  118  A    between atoms: _297  and  _300
REMARK  119  A    between atoms: _300  and  _301
REMARK  120  A    between atoms: _304  and  _306
REMARK  121  A    between atoms: _306  and  _307
REMARK  122  A    between atoms: _306  and  _309
REMARK  123  A    between atoms: _311  and  _313
REMARK  124  A    between atoms: _313  and  _314
REMARK  125  A    between atoms: _313  and  _316
REMARK  126  A    between atoms: _316  and  _317
REMARK  127  A    between atoms: _320  and  _322
REMARK  128  A    between atoms: _322  and  _323
REMARK  129  A    between atoms: _322  and  _325
REMARK  130  A    between atoms: _325  and  _326
REMARK  131  A    between atoms: _331  and  _333
REMARK  132  A    between atoms: _333  and  _334
REMARK  133  A    between atoms: _333  and  _336
REMARK  134  A    between atoms: _336  and  _337
REMARK  135  A    between atoms: _337  and  _338
REMARK  136  A    between atoms: _343  and  _345
REMARK  137  A    between atoms: _345  and  _346
REMARK  138  A    between atoms: _345  and  _348
REMARK  139  A    between atoms: _348  and  _349
REMARK  140  A    between atoms: _352  and  _354
REMARK  141  A    between atoms: _354  and  _355
REMARK  142  A    between atoms: _354  and  _357
REMARK  143  A    between atoms: _357  and  _358
REMARK  144  A    between atoms: _361  and  _363
REMARK  145  A    between atoms: _363  and  _364
REMARK  146  A    between atoms: _363  and  _366
REMARK  147  A    between atoms: _366  and  _367
REMARK  148  A    between atoms: _367  and  _368
REMARK  149  A    between atoms: _368  and  _369
REMARK  150  A    between atoms: _378  and  _380
REMARK  151  A    between atoms: _380  and  _381
REMARK  152  A    between atoms: _380  and  _383
REMARK  153  A    between atoms: _383  and  _384
REMARK  154  A    between atoms: _384  and  _385
REMARK  155  A    between atoms: _388  and  _390
REMARK  156  A    between atoms: _390  and  _391
REMARK  157  A    between atoms: _390  and  _393
REMARK  158  A    between atoms: _393  and  _394
REMARK  159  A    between atoms: _396  and  _398
REMARK  160  A    between atoms: _398  and  _399
REMARK  161  A    between atoms: _398  and  _401
REMARK  162  A    between atoms: _401  and  _402
REMARK  163  A    between atoms: _405  and  _407
REMARK  164  A    between atoms: _407  and  _408
REMARK  165  A    between atoms: _407  and  _410
REMARK  166  A    between atoms: _410  and  _411
REMARK  167  A    between atoms: _411  and  _412
REMARK  168  A    between atoms: _412  and  _413
REMARK  169  A    between atoms: _422  and  _424
REMARK  170  A    between atoms: _424  and  _425
REMARK  171  A    between atoms: _424  and  _427
REMARK  172  A    between atoms: _427  and  _428
REMARK  173  A    between atoms: _433  and  _435
REMARK  174  A    between atoms: _435  and  _436
REMARK  175  A    between atoms: _435  and  _438
REMARK  176  A    between atoms: _438  and  _439
REMARK  177  A    between atoms: _442  and  _444
REMARK  178  A    between atoms: _444  and  _445
REMARK  179  A    between atoms: _444  and  _447
REMARK  180  A    between atoms: _447  and  _448
REMARK  181  A    between atoms: _453  and  _454
REMARK  182  A    between atoms: _456  and  _458
REMARK  183  A    between atoms: _458  and  _459
REMARK  184  A    between atoms: _458  and  _461
REMARK  185  A    between atoms: _461  and  _462
REMARK  186  A    between atoms: _465  and  _467
REMARK  187  A    between atoms: _467  and  _468
REMARK  188  A    between atoms: _467  and  _470
REMARK  189  A    between atoms: _470  and  _471
REMARK  190  A    between atoms: _471  and  _472
REMARK  191  A    between atoms: _477  and  _479
REMARK  192  A    between atoms: _479  and  _480
REMARK  193  A    between atoms: _479  and  _482
REMARK  194  A    between atoms: _482  and  _483
REMARK  195  A    between atoms: _483  and  _484
REMARK  196  A    between atoms: _484  and  _485
REMARK  197  A    between atoms: _494  and  _496
REMARK  198  A    between atoms: _496  and  _497
REMARK  199  A    between atoms: _496  and  _499
REMARK  200  A    between atoms: _499  and  _500
REMARK  201  A    between atoms: _505  and  _506
REMARK  202  A    between atoms: _508  and  _510
REMARK  203  A    between atoms: _510  and  _511
REMARK  204  A    between atoms: _513  and  _515
REMARK  205  A    between atoms: _515  and  _516
REMARK  206  A    between atoms: _515  and  _518
REMARK  207  A    between atoms: _518  and  _519
REMARK  208  A    between atoms: _524  and  _526
REMARK  209  A    between atoms: _526  and  _527
REMARK  210  A    between atoms: _526  and  _529
REMARK  211  A    between atoms: _529  and  _530
REMARK  212  A    between atoms: _530  and  _531
REMARK  213  A    between atoms: _536  and  _538
REMARK  214  A    between atoms: _538  and  _539
REMARK  215  A    between atoms: _538  and  _541
REMARK  216  A    between atoms: _541  and  _542
REMARK  217  A    between atoms: _548  and  _550
REMARK  218  A    between atoms: _550  and  _551
REMARK  219  A    between atoms: _554  and  _556
REMARK  220  A    between atoms: _556  and  _557
REMARK  221  A    between atoms: _556  and  _559
REMARK  222  A    between atoms: _559  and  _560
REMARK  223  A    between atoms: _565  and  _566
REMARK  224  A    between atoms: _568  and  _570
REMARK  225  A    between atoms: _570  and  _571
REMARK  226  A    between atoms: _570  and  _573
REMARK  227  A    between atoms: _573  and  _574
REMARK  228  A    between atoms: _579  and  _580
REMARK  229  A    between atoms: _582  and  _584
REMARK  230  A    between atoms: _584  and  _585
REMARK  231  A    between atoms: _584  and  _587
REMARK  232  A    between atoms: _587  and  _588
REMARK  233  A    between atoms: _591  and  _593
REMARK  234  A    between atoms: _593  and  _594
REMARK  235  A    between atoms: _593  and  _596
REMARK  236  A    between atoms: _596  and  _597
REMARK  237  A    between atoms: _607  and  _609
REMARK  238  A    between atoms: _609  and  _610
REMARK  239  A    between atoms: _613  and  _615
REMARK  240  A    between atoms: _615  and  _616
REMARK  241  A    between atoms: _619  and  _621
REMARK  242  A    between atoms: _621  and  _622
REMARK  243  A    between atoms: _621  and  _624
REMARK  244  A    between atoms: _624  and  _625
REMARK  245  A    between atoms: _625  and  _626
REMARK  246  A    between atoms: _631  and  _633
REMARK  247  A    between atoms: _633  and  _634
REMARK  248  A    between atoms: _633  and  _636
REMARK  249  A    between atoms: _636  and  _637
REMARK  250  A    between atoms: _640  and  _642
REMARK  251  A    between atoms: _642  and  _643
REMARK  252  A    between atoms: _642  and  _645
REMARK  253  A    between atoms: _645  and  _646
REMARK  254  A    between atoms: _649  and  _651
REMARK  255  A    between atoms: _651  and  _652
REMARK  256  A    between atoms: _651  and  _654
REMARK  257  A    between atoms: _654  and  _655
REMARK  258  A    between atoms: _655  and  _656
REMARK  259  A    between atoms: _661  and  _663
REMARK  260  A    between atoms: _663  and  _664
REMARK  261  A    between atoms: _663  and  _666
REMARK  262  A    between atoms: _666  and  _667
REMARK  263  A    between atoms: _667  and  _668
REMARK  264  A    between atoms: _668  and  _669
REMARK  265  A    between atoms: _678  and  _680
REMARK  266  A    between atoms: _680  and  _681
REMARK  267  A    between atoms: _680  and  _683
REMARK  268  A    between atoms: _683  and  _684
REMARK  269  A    between atoms: _684  and  _685
REMARK  270  A    between atoms: _685  and  _686
REMARK  271  A    between atoms: _686  and  _687
REMARK  272  A    between atoms: _691  and  _693
REMARK  273  A    between atoms: _693  and  _694
REMARK  274  A    between atoms: _693  and  _696
REMARK  275  A    between atoms: _696  and  _697
REMARK  276  A    between atoms: _707  and  _709
REMARK  277  A    between atoms: _709  and  _710
REMARK  278  A    between atoms: _713  and  _715
REMARK  279  A    between atoms: _715  and  _716
REMARK  280  A    between atoms: _719  and  _721
REMARK  281  A    between atoms: _721  and  _722
REMARK  282  A    between atoms: _721  and  _724
REMARK  283  A    between atoms: _724  and  _725
REMARK  284  A    between atoms: _725  and  _726
REMARK  285  A    between atoms: _726  and  _727
REMARK  286  A    between atoms: _736  and  _738
REMARK  287  A    between atoms: _738  and  _739
REMARK  288  A    between atoms: _738  and  _741
REMARK  289  A    between atoms: _744  and  _746
REMARK  290  A    between atoms: _746  and  _747
REMARK  291  A    between atoms: _750  and  _752
REMARK  292  A    between atoms: _752  and  _753
REMARK  293  A    between atoms: _752  and  _755
REMARK  294  A    between atoms: _755  and  _756
REMARK  295  A    between atoms: _756  and  _757
REMARK  296  A    between atoms: _760  and  _762
REMARK  297  A    between atoms: _762  and  _763
REMARK  298  A    between atoms: _762  and  _765
REMARK  299  A    between atoms: _765  and  _766
REMARK  300  A    between atoms: _766  and  _767
REMARK  301  A    between atoms: _772  and  _774
REMARK  302  A    between atoms: _774  and  _775
REMARK  303  A    between atoms: _774  and  _777
REMARK  304  A    between atoms: _777  and  _778
REMARK  305  A    between atoms: _781  and  _783
REMARK  306  A    between atoms: _783  and  _784
REMARK  307  A    between atoms: _783  and  _786
REMARK  308  A    between atoms: _786  and  _787
REMARK  309  A    between atoms: _787  and  _788
REMARK  310  A    between atoms: _788  and  _789
REMARK  311  A    between atoms: _798  and  _800
REMARK  312  A    between atoms: _800  and  _801
REMARK  313  A    between atoms: _800  and  _803
REMARK  314  A    between atoms: _803  and  _804
REMARK  315  A    between atoms: _807  and  _809
REMARK  316  A    between atoms: _809  and  _810
REMARK  317  A    between atoms: _809  and  _812
REMARK  318  A    between atoms: _812  and  _813
REMARK  319  A    between atoms: _818  and  _819
REMARK  320  A    between atoms: _821  and  _823
REMARK  321  A    between atoms: _823  and  _824
REMARK  322  A    between atoms: _823  and  _826
REMARK  323  A    between atoms: _826  and  _827
REMARK  324  A    between atoms: _830  and  _832
REMARK  325  A    between atoms: _832  and  _833
REMARK  326  A    between atoms: _832  and  _835
REMARK  327  A    between atoms: _835  and  _836
REMARK  328  A    between atoms: _839  and  _841
REMARK  329  A    between atoms: _841  and  _842
REMARK  330  A    between atoms: _841  and  _844
REMARK  331  A    between atoms: _846  and  _848
REMARK  332  A    between atoms: _848  and  _849
REMARK  333  A    between atoms: _848  and  _851
REMARK  334  A    between atoms: _854  and  _856
REMARK  335  A    between atoms: _856  and  _857
REMARK  336  A    between atoms: _856  and  _859
REMARK  337  A    between atoms: _859  and  _860
REMARK  338  A    between atoms: _860  and  _861
REMARK  339  A    between atoms: _864  and  _866
REMARK  340  A    between atoms: _866  and  _867
REMARK  341  A    between atoms: _866  and  _869
REMARK  342  A    between atoms: _869  and  _870
REMARK  343  A    between atoms: _880  and  _882
REMARK  344  A    between atoms: _882  and  _883
REMARK  345  A    between atoms: _882  and  _885
REMARK  346  A    between atoms: _885  and  _886
REMARK  347  A    between atoms: _889  and  _891
REMARK  348  A    between atoms: _891  and  _892
REMARK  349  A    between atoms: _891  and  _894
REMARK  350  A    between atoms: _894  and  _895
REMARK  351  A    between atoms: _900  and  _901
REMARK                            x       y       z     vdW  Elec       q    Type
REMARK                         _______ _______ _______ _____ _____    ______ ____
ROOT
ATOM      1  O   HOH     1      15.617  11.210  45.306  0.00  0.00    +0.000 OA
ENDROOT
TORSDOF 0
REMARK  Name = ../refined-set-2016/4o2c/4o2c_pocket.pdb
REMARK  351 active torsions:
REMARK  status: ('A' for Active; 'I' for Inactive)
REMARK    1  A    between atoms: _1  and  _3
REMARK    2  A    between atoms: _3  and  _4
REMARK    3  A    between atoms: _3  and  _6
REMARK    4  A    between atoms: _6  and  _7
REMARK    5  A    between atoms: _7  and  _8
REMARK    6  A    between atoms: _10  and  _12
REMARK    7  A    between atoms: _12  and  _13
REMARK    8  A    between atoms: _12  and  _15
REMARK    9  A    between atoms: _15  and  _16
REMARK   10  A    between atoms: _16  and  _17
REMARK   11  A    between atoms: _17  and  _18
REMARK   12  A    between atoms: _27  and  _29
REMARK   13  A    between atoms: _29  and  _30
REMARK   14  A    between atoms: _29  and  _32
REMARK   15  A    between atoms: _32  and  _33
REMARK   16  A    between atoms: _38  and  _39
REMARK   17  A    between atoms: _41  and  _43
REMARK   18  A    between atoms: _43  and  _44
REMARK   19  A    between atoms: _43  and  _46
REMARK   20  A    between atoms: _46  and  _47
REMARK   21  A    between atoms: _53  and  _55
REMARK   22  A    between atoms: _55  and  _56
REMARK   23  A    between atoms: _55  and  _58
REMARK   24  A    between atoms: _58  and  _59
REMARK   25  A    between atoms: _64  and  _65
REMARK   26  A    between atoms: _67  and  _69
REMARK   27  A    between atoms: _69  and  _70
REMARK   28  A    between atoms: _69  and  _72
REMARK   29  A    between atoms: _72  and  _73
REMARK   30  A    between atoms: _79  and  _81
REMARK   31  A    between atoms: _81  and  _82
REMARK   32  A    between atoms: _81  and  _84
REMARK   33  A    between atoms: _84  and  _85
REMARK   34  A    between atoms: _88  and  _90
REMARK   35  A    between atoms: _90  and  _91
REMARK   36  A    between atoms: _90  and  _93
REMARK   37  A    between atoms: _93  and  _94
REMARK   38  A    between atoms: _96  and  _98
REMARK   39  A    between atoms: _98  and  _99
REMARK   40  A    between atoms: _98  and  _101
REMARK   41  A    between atoms: _104  and  _106
REMARK   42  A    between atoms: _106  and  _107
REMARK   43  A    between atoms: _109  and  _111
REMARK   44  A    between atoms: _111  and  _112
REMARK   45  A    between atoms: _111  and  _114
REMARK   46  A    between atoms: _114  and  _115
REMARK   47  A    between atoms: _121  and  _123
REMARK   48  A    between atoms: _123  and  _124
REMARK   49  A    between atoms: _123  and  _126
REMARK   50  A    between atoms: _129  and  _131
REMARK   51  A    between atoms: _131  and  _132
REMARK   52  A    between atoms: _131  and  _134
REMARK   53  A    between atoms: _134  and  _135
REMARK   54  A    between atoms: _135  and  _136
REMARK   55  A    between atoms: _136  and  _137
REMARK   56  A    between atoms: _146  and  _148
REMARK   57  A    between atoms: _148  and  _149
REMARK   58  A    between atoms: _148  and  _151
REMARK   59  A    between atoms: _151  and  _152
REMARK   60  A    between atoms: _158  and  _160
REMARK   61  A    between atoms: _160  and  _161
REMARK   62  A    between atoms: _160  and  _163
REMARK   63  A    between atoms: _163  and  _164
REMARK   64  A    between atoms: _164  and  _165
REMARK   65  A    between atoms: _168  and  _170
REMARK   66  A    between atoms: _170  and  _171
REMARK   67  A    between atoms: _170  and  _173
REMARK   68  A    between atoms: _173  and  _174
REMARK   69  A    between atoms: _174  and  _175
REMARK   70  A    between atoms: _178  and  _180
REMARK   71  A    between atoms: _180  and  _181
REMARK   72  A    between atoms: _180  and  _183
REMARK   73  A    between atoms: _183  and  _184
REMARK   74  A    between atoms: _187  and  _189
REMARK   75  A    between atoms: _189  and  _190
REMARK   76  A    between atoms: _189  and  _192
REMARK   77  A    between atoms: _192  and  _193
REMARK   78  A    between atoms: _193  and  _194
REMARK   79  A    between atoms: _197  and  _199
REMARK   80  A    between atoms: _199  and  _200
REMARK   81  A    between atoms: _199  and  _202
REMARK   82  A    between atoms: _202  and  _203
REMARK   83  A    between atoms: _203  and  _204
REMARK   84  A    between atoms: _207  and  _209
REMARK   85  A    between atoms: _209  and  _210
REMARK   86  A    between atoms: _209  and  _212
REMARK   87  A    between atoms: _212  and  _213
REMARK   88  A    between atoms: _218  and  _219
REMARK   89  A    between atoms: _221  and  _223
REMARK   90  A    between atoms: _223  and  _224
REMARK   91  A    between atoms: _223  and  _226
REMARK   92  A    between atoms: _226  and  _227
REMARK   93  A    between atoms: _237  and  _239
REMARK   94  A    between atoms: _239  and  _240
REMARK   95  A    between atoms: _239  and  _242
REMARK   96  A    between atoms: _242  and  _243
REMARK   97  A    between atoms: _246  and  _248
REMARK   98  A    between atoms: _248  and  _249
REMARK   99  A    between atoms: _248  and  _251
REMARK  100  A    between atoms: _251  and  _252
REMARK  101  A    between atoms: _252  and  _253
REMARK  102  A    between atoms: _253  and  _254
REMARK  103  A    between atoms: _263  and  _265
REMARK  104  A    between atoms: _265  and  _266
REMARK  105  A    between atoms: _265  and  _268
REMARK  106  A    between atoms: _268  and  _269
REMARK  107  A    between atoms: _274  and  _276
REMARK  108  A    between atoms: _276  and  _277
REMARK  109  A    between atoms: _276  and  _279
REMARK  110  A    between atoms: _279  and  _280
REMARK  111  A    between atoms: _283  and  _285
REMARK  112  A    between atoms: _285  and  _286
REMARK  113  A    between atoms: _285  and  _288
REMARK  114  A    between atoms: _288  and  _289
REMARK  115  A    between atoms: _289  and  _290
REMARK  116  A    between atoms: _295  and  _297
REMARK  117  A    between atoms: _297  and  _298
REMARK  118  A    between atoms: _297  and  _300
REMARK  119  A    between atoms: _300  and  _301
REMARK  120  A    between atoms: _304  and  _306
REMARK  121  A    between atoms: _306  and  _307
REMARK  122  A    between atoms: _306  and  _309
REMARK  123  A    between atoms: _311  and  _313
REMARK  124  A    between atoms: _313  and  _314
REMARK  125  A    between atoms: _313  and  _316
REMARK  126  A    between atoms: _316  and  _317
REMARK  127  A    between atoms: _320  and  _322
REMARK  128  A    between atoms: _322  and  _323
REMARK  129  A    between atoms: _322  and  _325
REMARK  130  A    between atoms: _325  and  _326
REMARK  131  A    between atoms: _331  and  _333
REMARK  132  A    between atoms: _333  and  _334
REMARK  133  A    between atoms: _333  and  _336
REMARK  134  A    between atoms: _336  and  _337
REMARK  135  A    between atoms: _337  and  _338
REMARK  136  A    between atoms: _343  and  _345
REMARK  137  A    between atoms: _345  and  _346
REMARK  138  A    between atoms: _345  and  _348
REMARK  139  A    between atoms: _348  and  _349
REMARK  140  A    between atoms: _352  and  _354
REMARK  141  A    between atoms: _354  and  _355
REMARK  142  A    between atoms: _354  and  _357
REMARK  143  A    between atoms: _357  and  _358
REMARK  144  A    between atoms: _361  and  _363
REMARK  145  A    between atoms: _363  and  _364
REMARK  146  A    between atoms: _363  and  _366
REMARK  147  A    between atoms: _366  and  _367
REMARK  148  A    between atoms: _367  and  _368
REMARK  149  A    between atoms: _368  and  _369
REMARK  150  A    between atoms: _378  and  _380
REMARK  151  A    between atoms: _380  and  _381
REMARK  152  A    between atoms: _380  and  _383
REMARK  153  A    between atoms: _383  and  _384
REMARK  154  A    between atoms: _384  and  _385
REMARK  155  A    between atoms: _388  and  _390
REMARK  156  A    between atoms: _390  and  _391
REMARK  157  A    between atoms: _390  and  _393
REMARK  158  A    between atoms: _393  and  _394
REMARK  159  A    between atoms: _396  and  _398
REMARK  160  A    between atoms: _398  and  _399
REMARK  161  A    between atoms: _398  and  _401
REMARK  162  A    between atoms: _401  and  _402
REMARK  163  A    between atoms: _405  and  _407
REMARK  164  A    between atoms: _407  and  _408
REMARK  165  A    between atoms: _407  and  _410
REMARK  166  A    between atoms: _410  and  _411
REMARK  167  A    between atoms: _411  and  _412
REMARK  168  A    between atoms: _412  and  _413
REMARK  169  A    between atoms: _422  and  _424
REMARK  170  A    between atoms: _424  and  _425
REMARK  171  A    between atoms: _424  and  _427
REMARK  172  A    between atoms: _427  and  _428
REMARK  173  A    between atoms: _433  and  _435
REMARK  174  A    between atoms: _435  and  _436
REMARK  175  A    between atoms: _435  and  _438
REMARK  176  A    between atoms: _438  and  _439
REMARK  177  A    between atoms: _442  and  _444
REMARK  178  A    between atoms: _444  and  _445
REMARK  179  A    between atoms: _444  and  _447
REMARK  180  A    between atoms: _447  and  _448
REMARK  181  A    between atoms: _453  and  _454
REMARK  182  A    between atoms: _456  and  _458
REMARK  183  A    between atoms: _458  and  _459
REMARK  184  A    between atoms: _458  and  _461
REMARK  185  A    between atoms: _461  and  _462
REMARK  186  A    between atoms: _465  and  _467
REMARK  187  A    between atoms: _467  and  _468
REMARK  188  A    between atoms: _467  and  _470
REMARK  189  A    between atoms: _470  and  _471
REMARK  190  A    between atoms: _471  and  _472
REMARK  191  A    between atoms: _477  and  _479
REMARK  192  A    between atoms: _479  and  _480
REMARK  193  A    between atoms: _479  and  _482
REMARK  194  A    between atoms: _482  and  _483
REMARK  195  A    between atoms: _483  and  _484
REMARK  196  A    between atoms: _484  and  _485
REMARK  197  A    between atoms: _494  and  _496
REMARK  198  A    between atoms: _496  and  _497
REMARK  199  A    between atoms: _496  and  _499
REMARK  200  A    between atoms: _499  and  _500
REMARK  201  A    between atoms: _505  and  _506
REMARK  202  A    between atoms: _508  and  _510
REMARK  203  A    between atoms: _510  and  _511
REMARK  204  A    between atoms: _513  and  _515
REMARK  205  A    between atoms: _515  and  _516
REMARK  206  A    between atoms: _515  and  _518
REMARK  207  A    between atoms: _518  and  _519
REMARK  208  A    between atoms: _524  and  _526
REMARK  209  A    between atoms: _526  and  _527
REMARK  210  A    between atoms: _526  and  _529
REMARK  211  A    between atoms: _529  and  _530
REMARK  212  A    between atoms: _530  and  _531
REMARK  213  A    between atoms: _536  and  _538
REMARK  214  A    between atoms: _538  and  _539
REMARK  215  A    between atoms: _538  and  _541
REMARK  216  A    between atoms: _541  and  _542
REMARK  217  A    between atoms: _548  and  _550
REMARK  218  A    between atoms: _550  and  _551
REMARK  219  A    between atoms: _554  and  _556
REMARK  220  A    between atoms: _556  and  _557
REMARK  221  A    between atoms: _556  and  _559
REMARK  222  A    between atoms: _559  and  _560
REMARK  223  A    between atoms: _565  and  _566
REMARK  224  A    between atoms: _568  and  _570
REMARK  225  A    between atoms: _570  and  _571
REMARK  226  A    between atoms: _570  and  _573
REMARK  227  A    between atoms: _573  and  _574
REMARK  228  A    between atoms: _579  and  _580
REMARK  229  A    between atoms: _582  and  _584
REMARK  230  A    between atoms: _584  and  _585
REMARK  231  A    between atoms: _584  and  _587
REMARK  232  A    between atoms: _587  and  _588
REMARK  233  A    between atoms: _591  and  _593
REMARK  234  A    between atoms: _593  and  _594
REMARK  235  A    between atoms: _593  and  _596
REMARK  236  A    between atoms: _596  and  _597
REMARK  237  A    between atoms: _607  and  _609
REMARK  238  A    between atoms: _609  and  _610
REMARK  239  A    between atoms: _613  and  _615
REMARK  240  A    between atoms: _615  and  _616
REMARK  241  A    between atoms: _619  and  _621
REMARK  242  A    between atoms: _621  and  _622
REMARK  243  A    between atoms: _621  and  _624
REMARK  244  A    between atoms: _624  and  _625
REMARK  245  A    between atoms: _625  and  _626
REMARK  246  A    between atoms: _631  and  _633
REMARK  247  A    between atoms: _633  and  _634
REMARK  248  A    between atoms: _633  and  _636
REMARK  249  A    between atoms: _636  and  _637
REMARK  250  A    between atoms: _640  and  _642
REMARK  251  A    between atoms: _642  and  _643
REMARK  252  A    between atoms: _642  and  _645
REMARK  253  A    between atoms: _645  and  _646
REMARK  254  A    between atoms: _649  and  _651
REMARK  255  A    between atoms: _651  and  _652
REMARK  256  A    between atoms: _651  and  _654
REMARK  257  A    between atoms: _654  and  _655
REMARK  258  A    between atoms: _655  and  _656
REMARK  259  A    between atoms: _661  and  _663
REMARK  260  A    between atoms: _663  and  _664
REMARK  261  A    between atoms: _663  and  _666
REMARK  262  A    between atoms: _666  and  _667
REMARK  263  A    between atoms: _667  and  _668
REMARK  264  A    between atoms: _668  and  _669
REMARK  265  A    between atoms: _678  and  _680
REMARK  266  A    between atoms: _680  and  _681
REMARK  267  A    between atoms: _680  and  _683
REMARK  268  A    between atoms: _683  and  _684
REMARK  269  A    between atoms: _684  and  _685
REMARK  270  A    between atoms: _685  and  _686
REMARK  271  A    between atoms: _686  and  _687
REMARK  272  A    between atoms: _691  and  _693
REMARK  273  A    between atoms: _693  and  _694
REMARK  274  A    between atoms: _693  and  _696
REMARK  275  A    between atoms: _696  and  _697
REMARK  276  A    between atoms: _707  and  _709
REMARK  277  A    between atoms: _709  and  _710
REMARK  278  A    between atoms: _713  and  _715
REMARK  279  A    between atoms: _715  and  _716
REMARK  280  A    between atoms: _719  and  _721
REMARK  281  A    between atoms: _721  and  _722
REMARK  282  A    between atoms: _721  and  _724
REMARK  283  A    between atoms: _724  and  _725
REMARK  284  A    between atoms: _725  and  _726
REMARK  285  A    between atoms: _726  and  _727
REMARK  286  A    between atoms: _736  and  _738
REMARK  287  A    between atoms: _738  and  _739
REMARK  288  A    between atoms: _738  and  _741
REMARK  289  A    between atoms: _744  and  _746
REMARK  290  A    between atoms: _746  and  _747
REMARK  291  A    between atoms: _750  and  _752
REMARK  292  A    between atoms: _752  and  _753
REMARK  293  A    between atoms: _752  and  _755
REMARK  294  A    between atoms: _755  and  _756
REMARK  295  A    between atoms: _756  and  _757
REMARK  296  A    between atoms: _760  and  _762
REMARK  297  A    between atoms: _762  and  _763
REMARK  298  A    between atoms: _762  and  _765
REMARK  299  A    between atoms: _765  and  _766
REMARK  300  A    between atoms: _766  and  _767
REMARK  301  A    between atoms: _772  and  _774
REMARK  302  A    between atoms: _774  and  _775
REMARK  303  A    between atoms: _774  and  _777
REMARK  304  A    between atoms: _777  and  _778
REMARK  305  A    between atoms: _781  and  _783
REMARK  306  A    between atoms: _783  and  _784
REMARK  307  A    between atoms: _783  and  _786
REMARK  308  A    between atoms: _786  and  _787
REMARK  309  A    between atoms: _787  and  _788
REMARK  310  A    between atoms: _788  and  _789
REMARK  311  A    between atoms: _798  and  _800
REMARK  312  A    between atoms: _800  and  _801
REMARK  313  A    between atoms: _800  and  _803
REMARK  314  A    between atoms: _803  and  _804
REMARK  315  A    between atoms: _807  and  _809
REMARK  316  A    between atoms: _809  and  _810
REMARK  317  A    between atoms: _809  and  _812
REMARK  318  A    between atoms: _812  and  _813
REMARK  319  A    between atoms: _818  and  _819
REMARK  320  A    between atoms: _821  and  _823
REMARK  321  A    between atoms: _823  and  _824
REMARK  322  A    between atoms: _823  and  _826
REMARK  323  A    between atoms: _826  and  _827
REMARK  324  A    between atoms: _830  and  _832
REMARK  325  A    between atoms: _832  and  _833
REMARK  326  A    between atoms: _832  and  _835
REMARK  327  A    between atoms: _835  and  _836
REMARK  328  A    between atoms: _839  and  _841
REMARK  329  A    between atoms: _841  and  _842
REMARK  330  A    between atoms: _841  and  _844
REMARK  331  A    between atoms: _846  and  _848
REMARK  332  A    between atoms: _848  and  _849
REMARK  333  A    between atoms: _848  and  _851
REMARK  334  A    between atoms: _854  and  _856
REMARK  335  A    between atoms: _856  and  _857
REMARK  336  A    between atoms: _856  and  _859
REMARK  337  A    between atoms: _859  and  _860
REMARK  338  A    between atoms: _860  and  _861
REMARK  339  A    between atoms: _864  and  _866
REMARK  340  A    between atoms: _866  and  _867
REMARK  341  A    between atoms: _866  and  _869
REMARK  342  A    between atoms: _869  and  _870
REMARK  343  A    between atoms: _880  and  _882
REMARK  344  A    between atoms: _882  and  _883
REMARK  345  A    between atoms: _882  and  _885
REMARK  346  A    between atoms: _885  and  _886
REMARK  347  A    between atoms: _889  and  _891
REMARK  348  A    between atoms: _891  and  _892
REMARK  349  A    between atoms: _891  and  _894
REMARK  350  A    between atoms: _894  and  _895
REMARK  351  A    between atoms: _900  and  _901
REMARK                            x       y       z     vdW  Elec       q    Type
REMARK                         _______ _______ _______ _____ _____    ______ ____
ROOT
ATOM      1  O   HOH     1      -3.468   3.698  41.229  0.00  0.00    +0.000 OA
ENDROOT
TORSDOF 0
REMARK  Name = ../refined-set-2016/4o2c/4o2c_pocket.pdb
REMARK  351 active torsions:
REMARK  status: ('A' for Active; 'I' for Inactive)
REMARK    1  A    between atoms: _1  and  _3
REMARK    2  A    between atoms: _3  and  _4
REMARK    3  A    between atoms: _3  and  _6
REMARK    4  A    between atoms: _6  and  _7
REMARK    5  A    between atoms: _7  and  _8
REMARK    6  A    between atoms: _10  and  _12
REMARK    7  A    between atoms: _12  and  _13
REMARK    8  A    between atoms: _12  and  _15
REMARK    9  A    between atoms: _15  and  _16
REMARK   10  A    between atoms: _16  and  _17
REMARK   11  A    between atoms: _17  and  _18
REMARK   12  A    between atoms: _27  and  _29
REMARK   13  A    between atoms: _29  and  _30
REMARK   14  A    between atoms: _29  and  _32
REMARK   15  A    between atoms: _32  and  _33
REMARK   16  A    between atoms: _38  and  _39
REMARK   17  A    between atoms: _41  and  _43
REMARK   18  A    between atoms: _43  and  _44
REMARK   19  A    between atoms: _43  and  _46
REMARK   20  A    between atoms: _46  and  _47
REMARK   21  A    between atoms: _53  and  _55
REMARK   22  A    between atoms: _55  and  _56
REMARK   23  A    between atoms: _55  and  _58
REMARK   24  A    between atoms: _58  and  _59
REMARK   25  A    between atoms: _64  and  _65
REMARK   26  A    between atoms: _67  and  _69
REMARK   27  A    between atoms: _69  and  _70
REMARK   28  A    between atoms: _69  and  _72
REMARK   29  A    between atoms: _72  and  _73
REMARK   30  A    between atoms: _79  and  _81
REMARK   31  A    between atoms: _81  and  _82
REMARK   32  A    between atoms: _81  and  _84
REMARK   33  A    between atoms: _84  and  _85
REMARK   34  A    between atoms: _88  and  _90
REMARK   35  A    between atoms: _90  and  _91
REMARK   36  A    between atoms: _90  and  _93
REMARK   37  A    between atoms: _93  and  _94
REMARK   38  A    between atoms: _96  and  _98
REMARK   39  A    between atoms: _98  and  _99
REMARK   40  A    between atoms: _98  and  _101
REMARK   41  A    between atoms: _104  and  _106
REMARK   42  A    between atoms: _106  and  _107
REMARK   43  A    between atoms: _109  and  _111
REMARK   44  A    between atoms: _111  and  _112
REMARK   45  A    between atoms: _111  and  _114
REMARK   46  A    between atoms: _114  and  _115
REMARK   47  A    between atoms: _121  and  _123
REMARK   48  A    between atoms: _123  and  _124
REMARK   49  A    between atoms: _123  and  _126
REMARK   50  A    between atoms: _129  and  _131
REMARK   51  A    between atoms: _131  and  _132
REMARK   52  A    between atoms: _131  and  _134
REMARK   53  A    between atoms: _134  and  _135
REMARK   54  A    between atoms: _135  and  _136
REMARK   55  A    between atoms: _136  and  _137
REMARK   56  A    between atoms: _146  and  _148
REMARK   57  A    between atoms: _148  and  _149
REMARK   58  A    between atoms: _148  and  _151
REMARK   59  A    between atoms: _151  and  _152
REMARK   60  A    between atoms: _158  and  _160
REMARK   61  A    between atoms: _160  and  _161
REMARK   62  A    between atoms: _160  and  _163
REMARK   63  A    between atoms: _163  and  _164
REMARK   64  A    between atoms: _164  and  _165
REMARK   65  A    between atoms: _168  and  _170
REMARK   66  A    between atoms: _170  and  _171
REMARK   67  A    between atoms: _170  and  _173
REMARK   68  A    between atoms: _173  and  _174
REMARK   69  A    between atoms: _174  and  _175
REMARK   70  A    between atoms: _178  and  _180
REMARK   71  A    between atoms: _180  and  _181
REMARK   72  A    between atoms: _180  and  _183
REMARK   73  A    between atoms: _183  and  _184
REMARK   74  A    between atoms: _187  and  _189
REMARK   75  A    between atoms: _189  and  _190
REMARK   76  A    between atoms: _189  and  _192
REMARK   77  A    between atoms: _192  and  _193
REMARK   78  A    between atoms: _193  and  _194
REMARK   79  A    between atoms: _197  and  _199
REMARK   80  A    between atoms: _199  and  _200
REMARK   81  A    between atoms: _199  and  _202
REMARK   82  A    between atoms: _202  and  _203
REMARK   83  A    between atoms: _203  and  _204
REMARK   84  A    between atoms: _207  and  _209
REMARK   85  A    between atoms: _209  and  _210
REMARK   86  A    between atoms: _209  and  _212
REMARK   87  A    between atoms: _212  and  _213
REMARK   88  A    between atoms: _218  and  _219
REMARK   89  A    between atoms: _221  and  _223
REMARK   90  A    between atoms: _223  and  _224
REMARK   91  A    between atoms: _223  and  _226
REMARK   92  A    between atoms: _226  and  _227
REMARK   93  A    between atoms: _237  and  _239
REMARK   94  A    between atoms: _239  and  _240
REMARK   95  A    between atoms: _239  and  _242
REMARK   96  A    between atoms: _242  and  _243
REMARK   97  A    between atoms: _246  and  _248
REMARK   98  A    between atoms: _248  and  _249
REMARK   99  A    between atoms: _248  and  _251
REMARK  100  A    between atoms: _251  and  _252
REMARK  101  A    between atoms: _252  and  _253
REMARK  102  A    between atoms: _253  and  _254
REMARK  103  A    between atoms: _263  and  _265
REMARK  104  A    between atoms: _265  and  _266
REMARK  105  A    between atoms: _265  and  _268
REMARK  106  A    between atoms: _268  and  _269
REMARK  107  A    between atoms: _274  and  _276
REMARK  108  A    between atoms: _276  and  _277
REMARK  109  A    between atoms: _276  and  _279
REMARK  110  A    between atoms: _279  and  _280
REMARK  111  A    between atoms: _283  and  _285
REMARK  112  A    between atoms: _285  and  _286
REMARK  113  A    between atoms: _285  and  _288
REMARK  114  A    between atoms: _288  and  _289
REMARK  115  A    between atoms: _289  and  _290
REMARK  116  A    between atoms: _295  and  _297
REMARK  117  A    between atoms: _297  and  _298
REMARK  118  A    between atoms: _297  and  _300
REMARK  119  A    between atoms: _300  and  _301
REMARK  120  A    between atoms: _304  and  _306
REMARK  121  A    between atoms: _306  and  _307
REMARK  122  A    between atoms: _306  and  _309
REMARK  123  A    between atoms: _311  and  _313
REMARK  124  A    between atoms: _313  and  _314
REMARK  125  A    between atoms: _313  and  _316
REMARK  126  A    between atoms: _316  and  _317
REMARK  127  A    between atoms: _320  and  _322
REMARK  128  A    between atoms: _322  and  _323
REMARK  129  A    between atoms: _322  and  _325
REMARK  130  A    between atoms: _325  and  _326
REMARK  131  A    between atoms: _331  and  _333
REMARK  132  A    between atoms: _333  and  _334
REMARK  133  A    between atoms: _333  and  _336
REMARK  134  A    between atoms: _336  and  _337
REMARK  135  A    between atoms: _337  and  _338
REMARK  136  A    between atoms: _343  and  _345
REMARK  137  A    between atoms: _345  and  _346
REMARK  138  A    between atoms: _345  and  _348
REMARK  139  A    between atoms: _348  and  _349
REMARK  140  A    between atoms: _352  and  _354
REMARK  141  A    between atoms: _354  and  _355
REMARK  142  A    between atoms: _354  and  _357
REMARK  143  A    between atoms: _357  and  _358
REMARK  144  A    between atoms: _361  and  _363
REMARK  145  A    between atoms: _363  and  _364
REMARK  146  A    between atoms: _363  and  _366
REMARK  147  A    between atoms: _366  and  _367
REMARK  148  A    between atoms: _367  and  _368
REMARK  149  A    between atoms: _368  and  _369
REMARK  150  A    between atoms: _378  and  _380
REMARK  151  A    between atoms: _380  and  _381
REMARK  152  A    between atoms: _380  and  _383
REMARK  153  A    between atoms: _383  and  _384
REMARK  154  A    between atoms: _384  and  _385
REMARK  155  A    between atoms: _388  and  _390
REMARK  156  A    between atoms: _390  and  _391
REMARK  157  A    between atoms: _390  and  _393
REMARK  158  A    between atoms: _393  and  _394
REMARK  159  A    between atoms: _396  and  _398
REMARK  160  A    between atoms: _398  and  _399
REMARK  161  A    between atoms: _398  and  _401
REMARK  162  A    between atoms: _401  and  _402
REMARK  163  A    between atoms: _405  and  _407
REMARK  164  A    between atoms: _407  and  _408
REMARK  165  A    between atoms: _407  and  _410
REMARK  166  A    between atoms: _410  and  _411
REMARK  167  A    between atoms: _411  and  _412
REMARK  168  A    between atoms: _412  and  _413
REMARK  169  A    between atoms: _422  and  _424
REMARK  170  A    between atoms: _424  and  _425
REMARK  171  A    between atoms: _424  and  _427
REMARK  172  A    between atoms: _427  and  _428
REMARK  173  A    between atoms: _433  and  _435
REMARK  174  A    between atoms: _435  and  _436
REMARK  175  A    between atoms: _435  and  _438
REMARK  176  A    between atoms: _438  and  _439
REMARK  177  A    between atoms: _442  and  _444
REMARK  178  A    between atoms: _444  and  _445
REMARK  179  A    between atoms: _444  and  _447
REMARK  180  A    between atoms: _447  and  _448
REMARK  181  A    between atoms: _453  and  _454
REMARK  182  A    between atoms: _456  and  _458
REMARK  183  A    between atoms: _458  and  _459
REMARK  184  A    between atoms: _458  and  _461
REMARK  185  A    between atoms: _461  and  _462
REMARK  186  A    between atoms: _465  and  _467
REMARK  187  A    between atoms: _467  and  _468
REMARK  188  A    between atoms: _467  and  _470
REMARK  189  A    between atoms: _470  and  _471
REMARK  190  A    between atoms: _471  and  _472
REMARK  191  A    between atoms: _477  and  _479
REMARK  192  A    between atoms: _479  and  _480
REMARK  193  A    between atoms: _479  and  _482
REMARK  194  A    between atoms: _482  and  _483
REMARK  195  A    between atoms: _483  and  _484
REMARK  196  A    between atoms: _484  and  _485
REMARK  197  A    between atoms: _494  and  _496
REMARK  198  A    between atoms: _496  and  _497
REMARK  199  A    between atoms: _496  and  _499
REMARK  200  A    between atoms: _499  and  _500
REMARK  201  A    between atoms: _505  and  _506
REMARK  202  A    between atoms: _508  and  _510
REMARK  203  A    between atoms: _510  and  _511
REMARK  204  A    between atoms: _513  and  _515
REMARK  205  A    between atoms: _515  and  _516
REMARK  206  A    between atoms: _515  and  _518
REMARK  207  A    between atoms: _518  and  _519
REMARK  208  A    between atoms: _524  and  _526
REMARK  209  A    between atoms: _526  and  _527
REMARK  210  A    between atoms: _526  and  _529
REMARK  211  A    between atoms: _529  and  _530
REMARK  212  A    between atoms: _530  and  _531
REMARK  213  A    between atoms: _536  and  _538
REMARK  214  A    between atoms: _538  and  _539
REMARK  215  A    between atoms: _538  and  _541
REMARK  216  A    between atoms: _541  and  _542
REMARK  217  A    between atoms: _548  and  _550
REMARK  218  A    between atoms: _550  and  _551
REMARK  219  A    between atoms: _554  and  _556
REMARK  220  A    between atoms: _556  and  _557
REMARK  221  A    between atoms: _556  and  _559
REMARK  222  A    between atoms: _559  and  _560
REMARK  223  A    between atoms: _565  and  _566
REMARK  224  A    between atoms: _568  and  _570
REMARK  225  A    between atoms: _570  and  _571
REMARK  226  A    between atoms: _570  and  _573
REMARK  227  A    between atoms: _573  and  _574
REMARK  228  A    between atoms: _579  and  _580
REMARK  229  A    between atoms: _582  and  _584
REMARK  230  A    between atoms: _584  and  _585
REMARK  231  A    between atoms: _584  and  _587
REMARK  232  A    between atoms: _587  and  _588
REMARK  233  A    between atoms: _591  and  _593
REMARK  234  A    between atoms: _593  and  _594
REMARK  235  A    between atoms: _593  and  _596
REMARK  236  A    between atoms: _596  and  _597
REMARK  237  A    between atoms: _607  and  _609
REMARK  238  A    between atoms: _609  and  _610
REMARK  239  A    between atoms: _613  and  _615
REMARK  240  A    between atoms: _615  and  _616
REMARK  241  A    between atoms: _619  and  _621
REMARK  242  A    between atoms: _621  and  _622
REMARK  243  A    between atoms: _621  and  _624
REMARK  244  A    between atoms: _624  and  _625
REMARK  245  A    between atoms: _625  and  _626
REMARK  246  A    between atoms: _631  and  _633
REMARK  247  A    between atoms: _633  and  _634
REMARK  248  A    between atoms: _633  and  _636
REMARK  249  A    between atoms: _636  and  _637
REMARK  250  A    between atoms: _640  and  _642
REMARK  251  A    between atoms: _642  and  _643
REMARK  252  A    between atoms: _642  and  _645
REMARK  253  A    between atoms: _645  and  _646
REMARK  254  A    between atoms: _649  and  _651
REMARK  255  A    between atoms: _651  and  _652
REMARK  256  A    between atoms: _651  and  _654
REMARK  257  A    between atoms: _654  and  _655
REMARK  258  A    between atoms: _655  and  _656
REMARK  259  A    between atoms: _661  and  _663
REMARK  260  A    between atoms: _663  and  _664
REMARK  261  A    between atoms: _663  and  _666
REMARK  262  A    between atoms: _666  and  _667
REMARK  263  A    between atoms: _667  and  _668
REMARK  264  A    between atoms: _668  and  _669
REMARK  265  A    between atoms: _678  and  _680
REMARK  266  A    between atoms: _680  and  _681
REMARK  267  A    between atoms: _680  and  _683
REMARK  268  A    between atoms: _683  and  _684
REMARK  269  A    between atoms: _684  and  _685
REMARK  270  A    between atoms: _685  and  _686
REMARK  271  A    between atoms: _686  and  _687
REMARK  272  A    between atoms: _691  and  _693
REMARK  273  A    between atoms: _693  and  _694
REMARK  274  A    between atoms: _693  and  _696
REMARK  275  A    between atoms: _696  and  _697
REMARK  276  A    between atoms: _707  and  _709
REMARK  277  A    between atoms: _709  and  _710
REMARK  278  A    between atoms: _713  and  _715
REMARK  279  A    between atoms: _715  and  _716
REMARK  280  A    between atoms: _719  and  _721
REMARK  281  A    between atoms: _721  and  _722
REMARK  282  A    between atoms: _721  and  _724
REMARK  283  A    between atoms: _724  and  _725
REMARK  284  A    between atoms: _725  and  _726
REMARK  285  A    between atoms: _726  and  _727
REMARK  286  A    between atoms: _736  and  _738
REMARK  287  A    between atoms: _738  and  _739
REMARK  288  A    between atoms: _738  and  _741
REMARK  289  A    between atoms: _744  and  _746
REMARK  290  A    between atoms: _746  and  _747
REMARK  291  A    between atoms: _750  and  _752
REMARK  292  A    between atoms: _752  and  _753
REMARK  293  A    between atoms: _752  and  _755
REMARK  294  A    between atoms: _755  and  _756
REMARK  295  A    between atoms: _756  and  _757
REMARK  296  A    between atoms: _760  and  _762
REMARK  297  A    between atoms: _762  and  _763
REMARK  298  A    between atoms: _762  and  _765
REMARK  299  A    between atoms: _765  and  _766
REMARK  300  A    between atoms: _766  and  _767
REMARK  301  A    between atoms: _772  and  _774
REMARK  302  A    between atoms: _774  and  _775
REMARK  303  A    between atoms: _774  and  _777
REMARK  304  A    between atoms: _777  and  _778
REMARK  305  A    between atoms: _781  and  _783
REMARK  306  A    between atoms: _783  and  _784
REMARK  307  A    between atoms: _783  and  _786
REMARK  308  A    between atoms: _786  and  _787
REMARK  309  A    between atoms: _787  and  _788
REMARK  310  A    between atoms: _788  and  _789
REMARK  311  A    between atoms: _798  and  _800
REMARK  312  A    between atoms: _800  and  _801
REMARK  313  A    between atoms: _800  and  _803
REMARK  314  A    between atoms: _803  and  _804
REMARK  315  A    between atoms: _807  and  _809
REMARK  316  A    between atoms: _809  and  _810
REMARK  317  A    between atoms: _809  and  _812
REMARK  318  A    between atoms: _812  and  _813
REMARK  319  A    between atoms: _818  and  _819
REMARK  320  A    between atoms: _821  and  _823
REMARK  321  A    between atoms: _823  and  _824
REMARK  322  A    between atoms: _823  and  _826
REMARK  323  A    between atoms: _826  and  _827
REMARK  324  A    between atoms: _830  and  _832
REMARK  325  A    between atoms: _832  and  _833
REMARK  326  A    between atoms: _832  and  _835
REMARK  327  A    between atoms: _835  and  _836
REMARK  328  A    between atoms: _839  and  _841
REMARK  329  A    between atoms: _841  and  _842
REMARK  330  A    between atoms: _841  and  _844
REMARK  331  A    between atoms: _846  and  _848
REMARK  332  A    between atoms: _848  and  _849
REMARK  333  A    between atoms: _848  and  _851
REMARK  334  A    between atoms: _854  and  _856
REMARK  335  A    between atoms: _856  and  _857
REMARK  336  A    between atoms: _856  and  _859
REMARK  337  A    between atoms: _859  and  _860
REMARK  338  A    between atoms: _860  and  _861
REMARK  339  A    between atoms: _864  and  _866
REMARK  340  A    between atoms: _866  and  _867
REMARK  341  A    between atoms: _866  and  _869
REMARK  342  A    between atoms: _869  and  _870
REMARK  343  A    between atoms: _880  and  _882
REMARK  344  A    between atoms: _882  and  _883
REMARK  345  A    between atoms: _882  and  _885
REMARK  346  A    between atoms: _885  and  _886
REMARK  347  A    between atoms: _889  and  _891
REMARK  348  A    between atoms: _891  and  _892
REMARK  349  A    between atoms: _891  and  _894
REMARK  350  A    between atoms: _894  and  _895
REMARK  351  A    between atoms: _900  and  _901
REMARK                            x       y       z     vdW  Elec       q    Type
REMARK                         _______ _______ _______ _____ _____    ______ ____
ROOT
ATOM      1  O   HOH     1      -4.788   5.788  39.408  0.00  0.00    +0.000 OA
ENDROOT
TORSDOF 0
REMARK  Name = ../refined-set-2016/4o2c/4o2c_pocket.pdb
REMARK  351 active torsions:
REMARK  status: ('A' for Active; 'I' for Inactive)
REMARK    1  A    between atoms: _1  and  _3
REMARK    2  A    between atoms: _3  and  _4
REMARK    3  A    between atoms: _3  and  _6
REMARK    4  A    between atoms: _6  and  _7
REMARK    5  A    between atoms: _7  and  _8
REMARK    6  A    between atoms: _10  and  _12
REMARK    7  A    between atoms: _12  and  _13
REMARK    8  A    between atoms: _12  and  _15
REMARK    9  A    between atoms: _15  and  _16
REMARK   10  A    between atoms: _16  and  _17
REMARK   11  A    between atoms: _17  and  _18
REMARK   12  A    between atoms: _27  and  _29
REMARK   13  A    between atoms: _29  and  _30
REMARK   14  A    between atoms: _29  and  _32
REMARK   15  A    between atoms: _32  and  _33
REMARK   16  A    between atoms: _38  and  _39
REMARK   17  A    between atoms: _41  and  _43
REMARK   18  A    between atoms: _43  and  _44
REMARK   19  A    between atoms: _43  and  _46
REMARK   20  A    between atoms: _46  and  _47
REMARK   21  A    between atoms: _53  and  _55
REMARK   22  A    between atoms: _55  and  _56
REMARK   23  A    between atoms: _55  and  _58
REMARK   24  A    between atoms: _58  and  _59
REMARK   25  A    between atoms: _64  and  _65
REMARK   26  A    between atoms: _67  and  _69
REMARK   27  A    between atoms: _69  and  _70
REMARK   28  A    between atoms: _69  and  _72
REMARK   29  A    between atoms: _72  and  _73
REMARK   30  A    between atoms: _79  and  _81
REMARK   31  A    between atoms: _81  and  _82
REMARK   32  A    between atoms: _81  and  _84
REMARK   33  A    between atoms: _84  and  _85
REMARK   34  A    between atoms: _88  and  _90
REMARK   35  A    between atoms: _90  and  _91
REMARK   36  A    between atoms: _90  and  _93
REMARK   37  A    between atoms: _93  and  _94
REMARK   38  A    between atoms: _96  and  _98
REMARK   39  A    between atoms: _98  and  _99
REMARK   40  A    between atoms: _98  and  _101
REMARK   41  A    between atoms: _104  and  _106
REMARK   42  A    between atoms: _106  and  _107
REMARK   43  A    between atoms: _109  and  _111
REMARK   44  A    between atoms: _111  and  _112
REMARK   45  A    between atoms: _111  and  _114
REMARK   46  A    between atoms: _114  and  _115
REMARK   47  A    between atoms: _121  and  _123
REMARK   48  A    between atoms: _123  and  _124
REMARK   49  A    between atoms: _123  and  _126
REMARK   50  A    between atoms: _129  and  _131
REMARK   51  A    between atoms: _131  and  _132
REMARK   52  A    between atoms: _131  and  _134
REMARK   53  A    between atoms: _134  and  _135
REMARK   54  A    between atoms: _135  and  _136
REMARK   55  A    between atoms: _136  and  _137
REMARK   56  A    between atoms: _146  and  _148
REMARK   57  A    between atoms: _148  and  _149
REMARK   58  A    between atoms: _148  and  _151
REMARK   59  A    between atoms: _151  and  _152
REMARK   60  A    between atoms: _158  and  _160
REMARK   61  A    between atoms: _160  and  _161
REMARK   62  A    between atoms: _160  and  _163
REMARK   63  A    between atoms: _163  and  _164
REMARK   64  A    between atoms: _164  and  _165
REMARK   65  A    between atoms: _168  and  _170
REMARK   66  A    between atoms: _170  and  _171
REMARK   67  A    between atoms: _170  and  _173
REMARK   68  A    between atoms: _173  and  _174
REMARK   69  A    between atoms: _174  and  _175
REMARK   70  A    between atoms: _178  and  _180
REMARK   71  A    between atoms: _180  and  _181
REMARK   72  A    between atoms: _180  and  _183
REMARK   73  A    between atoms: _183  and  _184
REMARK   74  A    between atoms: _187  and  _189
REMARK   75  A    between atoms: _189  and  _190
REMARK   76  A    between atoms: _189  and  _192
REMARK   77  A    between atoms: _192  and  _193
REMARK   78  A    between atoms: _193  and  _194
REMARK   79  A    between atoms: _197  and  _199
REMARK   80  A    between atoms: _199  and  _200
REMARK   81  A    between atoms: _199  and  _202
REMARK   82  A    between atoms: _202  and  _203
REMARK   83  A    between atoms: _203  and  _204
REMARK   84  A    between atoms: _207  and  _209
REMARK   85  A    between atoms: _209  and  _210
REMARK   86  A    between atoms: _209  and  _212
REMARK   87  A    between atoms: _212  and  _213
REMARK   88  A    between atoms: _218  and  _219
REMARK   89  A    between atoms: _221  and  _223
REMARK   90  A    between atoms: _223  and  _224
REMARK   91  A    between atoms: _223  and  _226
REMARK   92  A    between atoms: _226  and  _227
REMARK   93  A    between atoms: _237  and  _239
REMARK   94  A    between atoms: _239  and  _240
REMARK   95  A    between atoms: _239  and  _242
REMARK   96  A    between atoms: _242  and  _243
REMARK   97  A    between atoms: _246  and  _248
REMARK   98  A    between atoms: _248  and  _249
REMARK   99  A    between atoms: _248  and  _251
REMARK  100  A    between atoms: _251  and  _252
REMARK  101  A    between atoms: _252  and  _253
REMARK  102  A    between atoms: _253  and  _254
REMARK  103  A    between atoms: _263  and  _265
REMARK  104  A    between atoms: _265  and  _266
REMARK  105  A    between atoms: _265  and  _268
REMARK  106  A    between atoms: _268  and  _269
REMARK  107  A    between atoms: _274  and  _276
REMARK  108  A    between atoms: _276  and  _277
REMARK  109  A    between atoms: _276  and  _279
REMARK  110  A    between atoms: _279  and  _280
REMARK  111  A    between atoms: _283  and  _285
REMARK  112  A    between atoms: _285  and  _286
REMARK  113  A    between atoms: _285  and  _288
REMARK  114  A    between atoms: _288  and  _289
REMARK  115  A    between atoms: _289  and  _290
REMARK  116  A    between atoms: _295  and  _297
REMARK  117  A    between atoms: _297  and  _298
REMARK  118  A    between atoms: _297  and  _300
REMARK  119  A    between atoms: _300  and  _301
REMARK  120  A    between atoms: _304  and  _306
REMARK  121  A    between atoms: _306  and  _307
REMARK  122  A    between atoms: _306  and  _309
REMARK  123  A    between atoms: _311  and  _313
REMARK  124  A    between atoms: _313  and  _314
REMARK  125  A    between atoms: _313  and  _316
REMARK  126  A    between atoms: _316  and  _317
REMARK  127  A    between atoms: _320  and  _322
REMARK  128  A    between atoms: _322  and  _323
REMARK  129  A    between atoms: _322  and  _325
REMARK  130  A    between atoms: _325  and  _326
REMARK  131  A    between atoms: _331  and  _333
REMARK  132  A    between atoms: _333  and  _334
REMARK  133  A    between atoms: _333  and  _336
REMARK  134  A    between atoms: _336  and  _337
REMARK  135  A    between atoms: _337  and  _338
REMARK  136  A    between atoms: _343  and  _345
REMARK  137  A    between atoms: _345  and  _346
REMARK  138  A    between atoms: _345  and  _348
REMARK  139  A    between atoms: _348  and  _349
REMARK  140  A    between atoms: _352  and  _354
REMARK  141  A    between atoms: _354  and  _355
REMARK  142  A    between atoms: _354  and  _357
REMARK  143  A    between atoms: _357  and  _358
REMARK  144  A    between atoms: _361  and  _363
REMARK  145  A    between atoms: _363  and  _364
REMARK  146  A    between atoms: _363  and  _366
REMARK  147  A    between atoms: _366  and  _367
REMARK  148  A    between atoms: _367  and  _368
REMARK  149  A    between atoms: _368  and  _369
REMARK  150  A    between atoms: _378  and  _380
REMARK  151  A    between atoms: _380  and  _381
REMARK  152  A    between atoms: _380  and  _383
REMARK  153  A    between atoms: _383  and  _384
REMARK  154  A    between atoms: _384  and  _385
REMARK  155  A    between atoms: _388  and  _390
REMARK  156  A    between atoms: _390  and  _391
REMARK  157  A    between atoms: _390  and  _393
REMARK  158  A    between atoms: _393  and  _394
REMARK  159  A    between atoms: _396  and  _398
REMARK  160  A    between atoms: _398  and  _399
REMARK  161  A    between atoms: _398  and  _401
REMARK  162  A    between atoms: _401  and  _402
REMARK  163  A    between atoms: _405  and  _407
REMARK  164  A    between atoms: _407  and  _408
REMARK  165  A    between atoms: _407  and  _410
REMARK  166  A    between atoms: _410  and  _411
REMARK  167  A    between atoms: _411  and  _412
REMARK  168  A    between atoms: _412  and  _413
REMARK  169  A    between atoms: _422  and  _424
REMARK  170  A    between atoms: _424  and  _425
REMARK  171  A    between atoms: _424  and  _427
REMARK  172  A    between atoms: _427  and  _428
REMARK  173  A    between atoms: _433  and  _435
REMARK  174  A    between atoms: _435  and  _436
REMARK  175  A    between atoms: _435  and  _438
REMARK  176  A    between atoms: _438  and  _439
REMARK  177  A    between atoms: _442  and  _444
REMARK  178  A    between atoms: _444  and  _445
REMARK  179  A    between atoms: _444  and  _447
REMARK  180  A    between atoms: _447  and  _448
REMARK  181  A    between atoms: _453  and  _454
REMARK  182  A    between atoms: _456  and  _458
REMARK  183  A    between atoms: _458  and  _459
REMARK  184  A    between atoms: _458  and  _461
REMARK  185  A    between atoms: _461  and  _462
REMARK  186  A    between atoms: _465  and  _467
REMARK  187  A    between atoms: _467  and  _468
REMARK  188  A    between atoms: _467  and  _470
REMARK  189  A    between atoms: _470  and  _471
REMARK  190  A    between atoms: _471  and  _472
REMARK  191  A    between atoms: _477  and  _479
REMARK  192  A    between atoms: _479  and  _480
REMARK  193  A    between atoms: _479  and  _482
REMARK  194  A    between atoms: _482  and  _483
REMARK  195  A    between atoms: _483  and  _484
REMARK  196  A    between atoms: _484  and  _485
REMARK  197  A    between atoms: _494  and  _496
REMARK  198  A    between atoms: _496  and  _497
REMARK  199  A    between atoms: _496  and  _499
REMARK  200  A    between atoms: _499  and  _500
REMARK  201  A    between atoms: _505  and  _506
REMARK  202  A    between atoms: _508  and  _510
REMARK  203  A    between atoms: _510  and  _511
REMARK  204  A    between atoms: _513  and  _515
REMARK  205  A    between atoms: _515  and  _516
REMARK  206  A    between atoms: _515  and  _518
REMARK  207  A    between atoms: _518  and  _519
REMARK  208  A    between atoms: _524  and  _526
REMARK  209  A    between atoms: _526  and  _527
REMARK  210  A    between atoms: _526  and  _529
REMARK  211  A    between atoms: _529  and  _530
REMARK  212  A    between atoms: _530  and  _531
REMARK  213  A    between atoms: _536  and  _538
REMARK  214  A    between atoms: _538  and  _539
REMARK  215  A    between atoms: _538  and  _541
REMARK  216  A    between atoms: _541  and  _542
REMARK  217  A    between atoms: _548  and  _550
REMARK  218  A    between atoms: _550  and  _551
REMARK  219  A    between atoms: _554  and  _556
REMARK  220  A    between atoms: _556  and  _557
REMARK  221  A    between atoms: _556  and  _559
REMARK  222  A    between atoms: _559  and  _560
REMARK  223  A    between atoms: _565  and  _566
REMARK  224  A    between atoms: _568  and  _570
REMARK  225  A    between atoms: _570  and  _571
REMARK  226  A    between atoms: _570  and  _573
REMARK  227  A    between atoms: _573  and  _574
REMARK  228  A    between atoms: _579  and  _580
REMARK  229  A    between atoms: _582  and  _584
REMARK  230  A    between atoms: _584  and  _585
REMARK  231  A    between atoms: _584  and  _587
REMARK  232  A    between atoms: _587  and  _588
REMARK  233  A    between atoms: _591  and  _593
REMARK  234  A    between atoms: _593  and  _594
REMARK  235  A    between atoms: _593  and  _596
REMARK  236  A    between atoms: _596  and  _597
REMARK  237  A    between atoms: _607  and  _609
REMARK  238  A    between atoms: _609  and  _610
REMARK  239  A    between atoms: _613  and  _615
REMARK  240  A    between atoms: _615  and  _616
REMARK  241  A    between atoms: _619  and  _621
REMARK  242  A    between atoms: _621  and  _622
REMARK  243  A    between atoms: _621  and  _624
REMARK  244  A    between atoms: _624  and  _625
REMARK  245  A    between atoms: _625  and  _626
REMARK  246  A    between atoms: _631  and  _633
REMARK  247  A    between atoms: _633  and  _634
REMARK  248  A    between atoms: _633  and  _636
REMARK  249  A    between atoms: _636  and  _637
REMARK  250  A    between atoms: _640  and  _642
REMARK  251  A    between atoms: _642  and  _643
REMARK  252  A    between atoms: _642  and  _645
REMARK  253  A    between atoms: _645  and  _646
REMARK  254  A    between atoms: _649  and  _651
REMARK  255  A    between atoms: _651  and  _652
REMARK  256  A    between atoms: _651  and  _654
REMARK  257  A    between atoms: _654  and  _655
REMARK  258  A    between atoms: _655  and  _656
REMARK  259  A    between atoms: _661  and  _663
REMARK  260  A    between atoms: _663  and  _664
REMARK  261  A    between atoms: _663  and  _666
REMARK  262  A    between atoms: _666  and  _667
REMARK  263  A    between atoms: _667  and  _668
REMARK  264  A    between atoms: _668  and  _669
REMARK  265  A    between atoms: _678  and  _680
REMARK  266  A    between atoms: _680  and  _681
REMARK  267  A    between atoms: _680  and  _683
REMARK  268  A    between atoms: _683  and  _684
REMARK  269  A    between atoms: _684  and  _685
REMARK  270  A    between atoms: _685  and  _686
REMARK  271  A    between atoms: _686  and  _687
REMARK  272  A    between atoms: _691  and  _693
REMARK  273  A    between atoms: _693  and  _694
REMARK  274  A    between atoms: _693  and  _696
REMARK  275  A    between atoms: _696  and  _697
REMARK  276  A    between atoms: _707  and  _709
REMARK  277  A    between atoms: _709  and  _710
REMARK  278  A    between atoms: _713  and  _715
REMARK  279  A    between atoms: _715  and  _716
REMARK  280  A    between atoms: _719  and  _721
REMARK  281  A    between atoms: _721  and  _722
REMARK  282  A    between atoms: _721  and  _724
REMARK  283  A    between atoms: _724  and  _725
REMARK  284  A    between atoms: _725  and  _726
REMARK  285  A    between atoms: _726  and  _727
REMARK  286  A    between atoms: _736  and  _738
REMARK  287  A    between atoms: _738  and  _739
REMARK  288  A    between atoms: _738  and  _741
REMARK  289  A    between atoms: _744  and  _746
REMARK  290  A    between atoms: _746  and  _747
REMARK  291  A    between atoms: _750  and  _752
REMARK  292  A    between atoms: _752  and  _753
REMARK  293  A    between atoms: _752  and  _755
REMARK  294  A    between atoms: _755  and  _756
REMARK  295  A    between atoms: _756  and  _757
REMARK  296  A    between atoms: _760  and  _762
REMARK  297  A    between atoms: _762  and  _763
REMARK  298  A    between atoms: _762  and  _765
REMARK  299  A    between atoms: _765  and  _766
REMARK  300  A    between atoms: _766  and  _767
REMARK  301  A    between atoms: _772  and  _774
REMARK  302  A    between atoms: _774  and  _775
REMARK  303  A    between atoms: _774  and  _777
REMARK  304  A    between atoms: _777  and  _778
REMARK  305  A    between atoms: _781  and  _783
REMARK  306  A    between atoms: _783  and  _784
REMARK  307  A    between atoms: _783  and  _786
REMARK  308  A    between atoms: _786  and  _787
REMARK  309  A    between atoms: _787  and  _788
REMARK  310  A    between atoms: _788  and  _789
REMARK  311  A    between atoms: _798  and  _800
REMARK  312  A    between atoms: _800  and  _801
REMARK  313  A    between atoms: _800  and  _803
REMARK  314  A    between atoms: _803  and  _804
REMARK  315  A    between atoms: _807  and  _809
REMARK  316  A    between atoms: _809  and  _810
REMARK  317  A    between atoms: _809  and  _812
REMARK  318  A    between atoms: _812  and  _813
REMARK  319  A    between atoms: _818  and  _819
REMARK  320  A    between atoms: _821  and  _823
REMARK  321  A    between atoms: _823  and  _824
REMARK  322  A    between atoms: _823  and  _826
REMARK  323  A    between atoms: _826  and  _827
REMARK  324  A    between atoms: _830  and  _832
REMARK  325  A    between atoms: _832  and  _833
REMARK  326  A    between atoms: _832  and  _835
REMARK  327  A    between atoms: _835  and  _836
REMARK  328  A    between atoms: _839  and  _841
REMARK  329  A    between atoms: _841  and  _842
REMARK  330  A    between atoms: _841  and  _844
REMARK  331  A    between atoms: _846  and  _848
REMARK  332  A    between atoms: _848  and  _849
REMARK  333  A    between atoms: _848  and  _851
REMARK  334  A    between atoms: _854  and  _856
REMARK  335  A    between atoms: _856  and  _857
REMARK  336  A    between atoms: _856  and  _859
REMARK  337  A    between atoms: _859  and  _860
REMARK  338  A    between atoms: _860  and  _861
REMARK  339  A    between atoms: _864  and  _866
REMARK  340  A    between atoms: _866  and  _867
REMARK  341  A    between atoms: _866  and  _869
REMARK  342  A    between atoms: _869  and  _870
REMARK  343  A    between atoms: _880  and  _882
REMARK  344  A    between atoms: _882  and  _883
REMARK  345  A    between atoms: _882  and  _885
REMARK  346  A    between atoms: _885  and  _886
REMARK  347  A    between atoms: _889  and  _891
REMARK  348  A    between atoms: _891  and  _892
REMARK  349  A    between atoms: _891  and  _894
REMARK  350  A    between atoms: _894  and  _895
REMARK  351  A    between atoms: _900  and  _901
REMARK                            x       y       z     vdW  Elec       q    Type
REMARK                         _______ _______ _______ _____ _____    ______ ____
ROOT
ATOM      1  O   HOH     1      12.610  11.008  45.172  0.00  0.00    +0.000 OA
ENDROOT
TORSDOF 0
REMARK  Name = ../refined-set-2016/4o2c/4o2c_pocket.pdb
REMARK  351 active torsions:
REMARK  status: ('A' for Active; 'I' for Inactive)
REMARK    1  A    between atoms: _1  and  _3
REMARK    2  A    between atoms: _3  and  _4
REMARK    3  A    between atoms: _3  and  _6
REMARK    4  A    between atoms: _6  and  _7
REMARK    5  A    between atoms: _7  and  _8
REMARK    6  A    between atoms: _10  and  _12
REMARK    7  A    between atoms: _12  and  _13
REMARK    8  A    between atoms: _12  and  _15
REMARK    9  A    between atoms: _15  and  _16
REMARK   10  A    between atoms: _16  and  _17
REMARK   11  A    between atoms: _17  and  _18
REMARK   12  A    between atoms: _27  and  _29
REMARK   13  A    between atoms: _29  and  _30
REMARK   14  A    between atoms: _29  and  _32
REMARK   15  A    between atoms: _32  and  _33
REMARK   16  A    between atoms: _38  and  _39
REMARK   17  A    between atoms: _41  and  _43
REMARK   18  A    between atoms: _43  and  _44
REMARK   19  A    between atoms: _43  and  _46
REMARK   20  A    between atoms: _46  and  _47
REMARK   21  A    between atoms: _53  and  _55
REMARK   22  A    between atoms: _55  and  _56
REMARK   23  A    between atoms: _55  and  _58
REMARK   24  A    between atoms: _58  and  _59
REMARK   25  A    between atoms: _64  and  _65
REMARK   26  A    between atoms: _67  and  _69
REMARK   27  A    between atoms: _69  and  _70
REMARK   28  A    between atoms: _69  and  _72
REMARK   29  A    between atoms: _72  and  _73
REMARK   30  A    between atoms: _79  and  _81
REMARK   31  A    between atoms: _81  and  _82
REMARK   32  A    between atoms: _81  and  _84
REMARK   33  A    between atoms: _84  and  _85
REMARK   34  A    between atoms: _88  and  _90
REMARK   35  A    between atoms: _90  and  _91
REMARK   36  A    between atoms: _90  and  _93
REMARK   37  A    between atoms: _93  and  _94
REMARK   38  A    between atoms: _96  and  _98
REMARK   39  A    between atoms: _98  and  _99
REMARK   40  A    between atoms: _98  and  _101
REMARK   41  A    between atoms: _104  and  _106
REMARK   42  A    between atoms: _106  and  _107
REMARK   43  A    between atoms: _109  and  _111
REMARK   44  A    between atoms: _111  and  _112
REMARK   45  A    between atoms: _111  and  _114
REMARK   46  A    between atoms: _114  and  _115
REMARK   47  A    between atoms: _121  and  _123
REMARK   48  A    between atoms: _123  and  _124
REMARK   49  A    between atoms: _123  and  _126
REMARK   50  A    between atoms: _129  and  _131
REMARK   51  A    between atoms: _131  and  _132
REMARK   52  A    between atoms: _131  and  _134
REMARK   53  A    between atoms: _134  and  _135
REMARK   54  A    between atoms: _135  and  _136
REMARK   55  A    between atoms: _136  and  _137
REMARK   56  A    between atoms: _146  and  _148
REMARK   57  A    between atoms: _148  and  _149
REMARK   58  A    between atoms: _148  and  _151
REMARK   59  A    between atoms: _151  and  _152
REMARK   60  A    between atoms: _158  and  _160
REMARK   61  A    between atoms: _160  and  _161
REMARK   62  A    between atoms: _160  and  _163
REMARK   63  A    between atoms: _163  and  _164
REMARK   64  A    between atoms: _164  and  _165
REMARK   65  A    between atoms: _168  and  _170
REMARK   66  A    between atoms: _170  and  _171
REMARK   67  A    between atoms: _170  and  _173
REMARK   68  A    between atoms: _173  and  _174
REMARK   69  A    between atoms: _174  and  _175
REMARK   70  A    between atoms: _178  and  _180
REMARK   71  A    between atoms: _180  and  _181
REMARK   72  A    between atoms: _180  and  _183
REMARK   73  A    between atoms: _183  and  _184
REMARK   74  A    between atoms: _187  and  _189
REMARK   75  A    between atoms: _189  and  _190
REMARK   76  A    between atoms: _189  and  _192
REMARK   77  A    between atoms: _192  and  _193
REMARK   78  A    between atoms: _193  and  _194
REMARK   79  A    between atoms: _197  and  _199
REMARK   80  A    between atoms: _199  and  _200
REMARK   81  A    between atoms: _199  and  _202
REMARK   82  A    between atoms: _202  and  _203
REMARK   83  A    between atoms: _203  and  _204
REMARK   84  A    between atoms: _207  and  _209
REMARK   85  A    between atoms: _209  and  _210
REMARK   86  A    between atoms: _209  and  _212
REMARK   87  A    between atoms: _212  and  _213
REMARK   88  A    between atoms: _218  and  _219
REMARK   89  A    between atoms: _221  and  _223
REMARK   90  A    between atoms: _223  and  _224
REMARK   91  A    between atoms: _223  and  _226
REMARK   92  A    between atoms: _226  and  _227
REMARK   93  A    between atoms: _237  and  _239
REMARK   94  A    between atoms: _239  and  _240
REMARK   95  A    between atoms: _239  and  _242
REMARK   96  A    between atoms: _242  and  _243
REMARK   97  A    between atoms: _246  and  _248
REMARK   98  A    between atoms: _248  and  _249
REMARK   99  A    between atoms: _248  and  _251
REMARK  100  A    between atoms: _251  and  _252
REMARK  101  A    between atoms: _252  and  _253
REMARK  102  A    between atoms: _253  and  _254
REMARK  103  A    between atoms: _263  and  _265
REMARK  104  A    between atoms: _265  and  _266
REMARK  105  A    between atoms: _265  and  _268
REMARK  106  A    between atoms: _268  and  _269
REMARK  107  A    between atoms: _274  and  _276
REMARK  108  A    between atoms: _276  and  _277
REMARK  109  A    between atoms: _276  and  _279
REMARK  110  A    between atoms: _279  and  _280
REMARK  111  A    between atoms: _283  and  _285
REMARK  112  A    between atoms: _285  and  _286
REMARK  113  A    between atoms: _285  and  _288
REMARK  114  A    between atoms: _288  and  _289
REMARK  115  A    between atoms: _289  and  _290
REMARK  116  A    between atoms: _295  and  _297
REMARK  117  A    between atoms: _297  and  _298
REMARK  118  A    between atoms: _297  and  _300
REMARK  119  A    between atoms: _300  and  _301
REMARK  120  A    between atoms: _304  and  _306
REMARK  121  A    between atoms: _306  and  _307
REMARK  122  A    between atoms: _306  and  _309
REMARK  123  A    between atoms: _311  and  _313
REMARK  124  A    between atoms: _313  and  _314
REMARK  125  A    between atoms: _313  and  _316
REMARK  126  A    between atoms: _316  and  _317
REMARK  127  A    between atoms: _320  and  _322
REMARK  128  A    between atoms: _322  and  _323
REMARK  129  A    between atoms: _322  and  _325
REMARK  130  A    between atoms: _325  and  _326
REMARK  131  A    between atoms: _331  and  _333
REMARK  132  A    between atoms: _333  and  _334
REMARK  133  A    between atoms: _333  and  _336
REMARK  134  A    between atoms: _336  and  _337
REMARK  135  A    between atoms: _337  and  _338
REMARK  136  A    between atoms: _343  and  _345
REMARK  137  A    between atoms: _345  and  _346
REMARK  138  A    between atoms: _345  and  _348
REMARK  139  A    between atoms: _348  and  _349
REMARK  140  A    between atoms: _352  and  _354
REMARK  141  A    between atoms: _354  and  _355
REMARK  142  A    between atoms: _354  and  _357
REMARK  143  A    between atoms: _357  and  _358
REMARK  144  A    between atoms: _361  and  _363
REMARK  145  A    between atoms: _363  and  _364
REMARK  146  A    between atoms: _363  and  _366
REMARK  147  A    between atoms: _366  and  _367
REMARK  148  A    between atoms: _367  and  _368
REMARK  149  A    between atoms: _368  and  _369
REMARK  150  A    between atoms: _378  and  _380
REMARK  151  A    between atoms: _380  and  _381
REMARK  152  A    between atoms: _380  and  _383
REMARK  153  A    between atoms: _383  and  _384
REMARK  154  A    between atoms: _384  and  _385
REMARK  155  A    between atoms: _388  and  _390
REMARK  156  A    between atoms: _390  and  _391
REMARK  157  A    between atoms: _390  and  _393
REMARK  158  A    between atoms: _393  and  _394
REMARK  159  A    between atoms: _396  and  _398
REMARK  160  A    between atoms: _398  and  _399
REMARK  161  A    between atoms: _398  and  _401
REMARK  162  A    between atoms: _401  and  _402
REMARK  163  A    between atoms: _405  and  _407
REMARK  164  A    between atoms: _407  and  _408
REMARK  165  A    between atoms: _407  and  _410
REMARK  166  A    between atoms: _410  and  _411
REMARK  167  A    between atoms: _411  and  _412
REMARK  168  A    between atoms: _412  and  _413
REMARK  169  A    between atoms: _422  and  _424
REMARK  170  A    between atoms: _424  and  _425
REMARK  171  A    between atoms: _424  and  _427
REMARK  172  A    between atoms: _427  and  _428
REMARK  173  A    between atoms: _433  and  _435
REMARK  174  A    between atoms: _435  and  _436
REMARK  175  A    between atoms: _435  and  _438
REMARK  176  A    between atoms: _438  and  _439
REMARK  177  A    between atoms: _442  and  _444
REMARK  178  A    between atoms: _444  and  _445
REMARK  179  A    between atoms: _444  and  _447
REMARK  180  A    between atoms: _447  and  _448
REMARK  181  A    between atoms: _453  and  _454
REMARK  182  A    between atoms: _456  and  _458
REMARK  183  A    between atoms: _458  and  _459
REMARK  184  A    between atoms: _458  and  _461
REMARK  185  A    between atoms: _461  and  _462
REMARK  186  A    between atoms: _465  and  _467
REMARK  187  A    between atoms: _467  and  _468
REMARK  188  A    between atoms: _467  and  _470
REMARK  189  A    between atoms: _470  and  _471
REMARK  190  A    between atoms: _471  and  _472
REMARK  191  A    between atoms: _477  and  _479
REMARK  192  A    between atoms: _479  and  _480
REMARK  193  A    between atoms: _479  and  _482
REMARK  194  A    between atoms: _482  and  _483
REMARK  195  A    between atoms: _483  and  _484
REMARK  196  A    between atoms: _484  and  _485
REMARK  197  A    between atoms: _494  and  _496
REMARK  198  A    between atoms: _496  and  _497
REMARK  199  A    between atoms: _496  and  _499
REMARK  200  A    between atoms: _499  and  _500
REMARK  201  A    between atoms: _505  and  _506
REMARK  202  A    between atoms: _508  and  _510
REMARK  203  A    between atoms: _510  and  _511
REMARK  204  A    between atoms: _513  and  _515
REMARK  205  A    between atoms: _515  and  _516
REMARK  206  A    between atoms: _515  and  _518
REMARK  207  A    between atoms: _518  and  _519
REMARK  208  A    between atoms: _524  and  _526
REMARK  209  A    between atoms: _526  and  _527
REMARK  210  A    between atoms: _526  and  _529
REMARK  211  A    between atoms: _529  and  _530
REMARK  212  A    between atoms: _530  and  _531
REMARK  213  A    between atoms: _536  and  _538
REMARK  214  A    between atoms: _538  and  _539
REMARK  215  A    between atoms: _538  and  _541
REMARK  216  A    between atoms: _541  and  _542
REMARK  217  A    between atoms: _548  and  _550
REMARK  218  A    between atoms: _550  and  _551
REMARK  219  A    between atoms: _554  and  _556
REMARK  220  A    between atoms: _556  and  _557
REMARK  221  A    between atoms: _556  and  _559
REMARK  222  A    between atoms: _559  and  _560
REMARK  223  A    between atoms: _565  and  _566
REMARK  224  A    between atoms: _568  and  _570
REMARK  225  A    between atoms: _570  and  _571
REMARK  226  A    between atoms: _570  and  _573
REMARK  227  A    between atoms: _573  and  _574
REMARK  228  A    between atoms: _579  and  _580
REMARK  229  A    between atoms: _582  and  _584
REMARK  230  A    between atoms: _584  and  _585
REMARK  231  A    between atoms: _584  and  _587
REMARK  232  A    between atoms: _587  and  _588
REMARK  233  A    between atoms: _591  and  _593
REMARK  234  A    between atoms: _593  and  _594
REMARK  235  A    between atoms: _593  and  _596
REMARK  236  A    between atoms: _596  and  _597
REMARK  237  A    between atoms: _607  and  _609
REMARK  238  A    between atoms: _609  and  _610
REMARK  239  A    between atoms: _613  and  _615
REMARK  240  A    between atoms: _615  and  _616
REMARK  241  A    between atoms: _619  and  _621
REMARK  242  A    between atoms: _621  and  _622
REMARK  243  A    between atoms: _621  and  _624
REMARK  244  A    between atoms: _624  and  _625
REMARK  245  A    between atoms: _625  and  _626
REMARK  246  A    between atoms: _631  and  _633
REMARK  247  A    between atoms: _633  and  _634
REMARK  248  A    between atoms: _633  and  _636
REMARK  249  A    between atoms: _636  and  _637
REMARK  250  A    between atoms: _640  and  _642
REMARK  251  A    between atoms: _642  and  _643
REMARK  252  A    between atoms: _642  and  _645
REMARK  253  A    between atoms: _645  and  _646
REMARK  254  A    between atoms: _649  and  _651
REMARK  255  A    between atoms: _651  and  _652
REMARK  256  A    between atoms: _651  and  _654
REMARK  257  A    between atoms: _654  and  _655
REMARK  258  A    between atoms: _655  and  _656
REMARK  259  A    between atoms: _661  and  _663
REMARK  260  A    between atoms: _663  and  _664
REMARK  261  A    between atoms: _663  and  _666
REMARK  262  A    between atoms: _666  and  _667
REMARK  263  A    between atoms: _667  and  _668
REMARK  264  A    between atoms: _668  and  _669
REMARK  265  A    between atoms: _678  and  _680
REMARK  266  A    between atoms: _680  and  _681
REMARK  267  A    between atoms: _680  and  _683
REMARK  268  A    between atoms: _683  and  _684
REMARK  269  A    between atoms: _684  and  _685
REMARK  270  A    between atoms: _685  and  _686
REMARK  271  A    between atoms: _686  and  _687
REMARK  272  A    between atoms: _691  and  _693
REMARK  273  A    between atoms: _693  and  _694
REMARK  274  A    between atoms: _693  and  _696
REMARK  275  A    between atoms: _696  and  _697
REMARK  276  A    between atoms: _707  and  _709
REMARK  277  A    between atoms: _709  and  _710
REMARK  278  A    between atoms: _713  and  _715
REMARK  279  A    between atoms: _715  and  _716
REMARK  280  A    between atoms: _719  and  _721
REMARK  281  A    between atoms: _721  and  _722
REMARK  282  A    between atoms: _721  and  _724
REMARK  283  A    between atoms: _724  and  _725
REMARK  284  A    between atoms: _725  and  _726
REMARK  285  A    between atoms: _726  and  _727
REMARK  286  A    between atoms: _736  and  _738
REMARK  287  A    between atoms: _738  and  _739
REMARK  288  A    between atoms: _738  and  _741
REMARK  289  A    between atoms: _744  and  _746
REMARK  290  A    between atoms: _746  and  _747
REMARK  291  A    between atoms: _750  and  _752
REMARK  292  A    between atoms: _752  and  _753
REMARK  293  A    between atoms: _752  and  _755
REMARK  294  A    between atoms: _755  and  _756
REMARK  295  A    between atoms: _756  and  _757
REMARK  296  A    between atoms: _760  and  _762
REMARK  297  A    between atoms: _762  and  _763
REMARK  298  A    between atoms: _762  and  _765
REMARK  299  A    between atoms: _765  and  _766
REMARK  300  A    between atoms: _766  and  _767
REMARK  301  A    between atoms: _772  and  _774
REMARK  302  A    between atoms: _774  and  _775
REMARK  303  A    between atoms: _774  and  _777
REMARK  304  A    between atoms: _777  and  _778
REMARK  305  A    between atoms: _781  and  _783
REMARK  306  A    between atoms: _783  and  _784
REMARK  307  A    between atoms: _783  and  _786
REMARK  308  A    between atoms: _786  and  _787
REMARK  309  A    between atoms: _787  and  _788
REMARK  310  A    between atoms: _788  and  _789
REMARK  311  A    between atoms: _798  and  _800
REMARK  312  A    between atoms: _800  and  _801
REMARK  313  A    between atoms: _800  and  _803
REMARK  314  A    between atoms: _803  and  _804
REMARK  315  A    between atoms: _807  and  _809
REMARK  316  A    between atoms: _809  and  _810
REMARK  317  A    between atoms: _809  and  _812
REMARK  318  A    between atoms: _812  and  _813
REMARK  319  A    between atoms: _818  and  _819
REMARK  320  A    between atoms: _821  and  _823
REMARK  321  A    between atoms: _823  and  _824
REMARK  322  A    between atoms: _823  and  _826
REMARK  323  A    between atoms: _826  and  _827
REMARK  324  A    between atoms: _830  and  _832
REMARK  325  A    between atoms: _832  and  _833
REMARK  326  A    between atoms: _832  and  _835
REMARK  327  A    between atoms: _835  and  _836
REMARK  328  A    between atoms: _839  and  _841
REMARK  329  A    between atoms: _841  and  _842
REMARK  330  A    between atoms: _841  and  _844
REMARK  331  A    between atoms: _846  and  _848
REMARK  332  A    between atoms: _848  and  _849
REMARK  333  A    between atoms: _848  and  _851
REMARK  334  A    between atoms: _854  and  _856
REMARK  335  A    between atoms: _856  and  _857
REMARK  336  A    between atoms: _856  and  _859
REMARK  337  A    between atoms: _859  and  _860
REMARK  338  A    between atoms: _860  and  _861
REMARK  339  A    between atoms: _864  and  _866
REMARK  340  A    between atoms: _866  and  _867
REMARK  341  A    between atoms: _866  and  _869
REMARK  342  A    between atoms: _869  and  _870
REMARK  343  A    between atoms: _880  and  _882
REMARK  344  A    between atoms: _882  and  _883
REMARK  345  A    between atoms: _882  and  _885
REMARK  346  A    between atoms: _885  and  _886
REMARK  347  A    between atoms: _889  and  _891
REMARK  348  A    between atoms: _891  and  _892
REMARK  349  A    between atoms: _891  and  _894
REMARK  350  A    between atoms: _894  and  _895
REMARK  351  A    between atoms: _900  and  _901
REMARK                            x       y       z     vdW  Elec       q    Type
REMARK                         _______ _______ _______ _____ _____    ______ ____
ROOT
ATOM      1  O   HOH     1       6.574  17.355  41.883  0.00  0.00    +0.000 OA
ENDROOT
TORSDOF 0
REMARK  Name = ../refined-set-2016/4o2c/4o2c_pocket.pdb
REMARK  351 active torsions:
REMARK  status: ('A' for Active; 'I' for Inactive)
REMARK    1  A    between atoms: _1  and  _3
REMARK    2  A    between atoms: _3  and  _4
REMARK    3  A    between atoms: _3  and  _6
REMARK    4  A    between atoms: _6  and  _7
REMARK    5  A    between atoms: _7  and  _8
REMARK    6  A    between atoms: _10  and  _12
REMARK    7  A    between atoms: _12  and  _13
REMARK    8  A    between atoms: _12  and  _15
REMARK    9  A    between atoms: _15  and  _16
REMARK   10  A    between atoms: _16  and  _17
REMARK   11  A    between atoms: _17  and  _18
REMARK   12  A    between atoms: _27  and  _29
REMARK   13  A    between atoms: _29  and  _30
REMARK   14  A    between atoms: _29  and  _32
REMARK   15  A    between atoms: _32  and  _33
REMARK   16  A    between atoms: _38  and  _39
REMARK   17  A    between atoms: _41  and  _43
REMARK   18  A    between atoms: _43  and  _44
REMARK   19  A    between atoms: _43  and  _46
REMARK   20  A    between atoms: _46  and  _47
REMARK   21  A    between atoms: _53  and  _55
REMARK   22  A    between atoms: _55  and  _56
REMARK   23  A    between atoms: _55  and  _58
REMARK   24  A    between atoms: _58  and  _59
REMARK   25  A    between atoms: _64  and  _65
REMARK   26  A    between atoms: _67  and  _69
REMARK   27  A    between atoms: _69  and  _70
REMARK   28  A    between atoms: _69  and  _72
REMARK   29  A    between atoms: _72  and  _73
REMARK   30  A    between atoms: _79  and  _81
REMARK   31  A    between atoms: _81  and  _82
REMARK   32  A    between atoms: _81  and  _84
REMARK   33  A    between atoms: _84  and  _85
REMARK   34  A    between atoms: _88  and  _90
REMARK   35  A    between atoms: _90  and  _91
REMARK   36  A    between atoms: _90  and  _93
REMARK   37  A    between atoms: _93  and  _94
REMARK   38  A    between atoms: _96  and  _98
REMARK   39  A    between atoms: _98  and  _99
REMARK   40  A    between atoms: _98  and  _101
REMARK   41  A    between atoms: _104  and  _106
REMARK   42  A    between atoms: _106  and  _107
REMARK   43  A    between atoms: _109  and  _111
REMARK   44  A    between atoms: _111  and  _112
REMARK   45  A    between atoms: _111  and  _114
REMARK   46  A    between atoms: _114  and  _115
REMARK   47  A    between atoms: _121  and  _123
REMARK   48  A    between atoms: _123  and  _124
REMARK   49  A    between atoms: _123  and  _126
REMARK   50  A    between atoms: _129  and  _131
REMARK   51  A    between atoms: _131  and  _132
REMARK   52  A    between atoms: _131  and  _134
REMARK   53  A    between atoms: _134  and  _135
REMARK   54  A    between atoms: _135  and  _136
REMARK   55  A    between atoms: _136  and  _137
REMARK   56  A    between atoms: _146  and  _148
REMARK   57  A    between atoms: _148  and  _149
REMARK   58  A    between atoms: _148  and  _151
REMARK   59  A    between atoms: _151  and  _152
REMARK   60  A    between atoms: _158  and  _160
REMARK   61  A    between atoms: _160  and  _161
REMARK   62  A    between atoms: _160  and  _163
REMARK   63  A    between atoms: _163  and  _164
REMARK   64  A    between atoms: _164  and  _165
REMARK   65  A    between atoms: _168  and  _170
REMARK   66  A    between atoms: _170  and  _171
REMARK   67  A    between atoms: _170  and  _173
REMARK   68  A    between atoms: _173  and  _174
REMARK   69  A    between atoms: _174  and  _175
REMARK   70  A    between atoms: _178  and  _180
REMARK   71  A    between atoms: _180  and  _181
REMARK   72  A    between atoms: _180  and  _183
REMARK   73  A    between atoms: _183  and  _184
REMARK   74  A    between atoms: _187  and  _189
REMARK   75  A    between atoms: _189  and  _190
REMARK   76  A    between atoms: _189  and  _192
REMARK   77  A    between atoms: _192  and  _193
REMARK   78  A    between atoms: _193  and  _194
REMARK   79  A    between atoms: _197  and  _199
REMARK   80  A    between atoms: _199  and  _200
REMARK   81  A    between atoms: _199  and  _202
REMARK   82  A    between atoms: _202  and  _203
REMARK   83  A    between atoms: _203  and  _204
REMARK   84  A    between atoms: _207  and  _209
REMARK   85  A    between atoms: _209  and  _210
REMARK   86  A    between atoms: _209  and  _212
REMARK   87  A    between atoms: _212  and  _213
REMARK   88  A    between atoms: _218  and  _219
REMARK   89  A    between atoms: _221  and  _223
REMARK   90  A    between atoms: _223  and  _224
REMARK   91  A    between atoms: _223  and  _226
REMARK   92  A    between atoms: _226  and  _227
REMARK   93  A    between atoms: _237  and  _239
REMARK   94  A    between atoms: _239  and  _240
REMARK   95  A    between atoms: _239  and  _242
REMARK   96  A    between atoms: _242  and  _243
REMARK   97  A    between atoms: _246  and  _248
REMARK   98  A    between atoms: _248  and  _249
REMARK   99  A    between atoms: _248  and  _251
REMARK  100  A    between atoms: _251  and  _252
REMARK  101  A    between atoms: _252  and  _253
REMARK  102  A    between atoms: _253  and  _254
REMARK  103  A    between atoms: _263  and  _265
REMARK  104  A    between atoms: _265  and  _266
REMARK  105  A    between atoms: _265  and  _268
REMARK  106  A    between atoms: _268  and  _269
REMARK  107  A    between atoms: _274  and  _276
REMARK  108  A    between atoms: _276  and  _277
REMARK  109  A    between atoms: _276  and  _279
REMARK  110  A    between atoms: _279  and  _280
REMARK  111  A    between atoms: _283  and  _285
REMARK  112  A    between atoms: _285  and  _286
REMARK  113  A    between atoms: _285  and  _288
REMARK  114  A    between atoms: _288  and  _289
REMARK  115  A    between atoms: _289  and  _290
REMARK  116  A    between atoms: _295  and  _297
REMARK  117  A    between atoms: _297  and  _298
REMARK  118  A    between atoms: _297  and  _300
REMARK  119  A    between atoms: _300  and  _301
REMARK  120  A    between atoms: _304  and  _306
REMARK  121  A    between atoms: _306  and  _307
REMARK  122  A    between atoms: _306  and  _309
REMARK  123  A    between atoms: _311  and  _313
REMARK  124  A    between atoms: _313  and  _314
REMARK  125  A    between atoms: _313  and  _316
REMARK  126  A    between atoms: _316  and  _317
REMARK  127  A    between atoms: _320  and  _322
REMARK  128  A    between atoms: _322  and  _323
REMARK  129  A    between atoms: _322  and  _325
REMARK  130  A    between atoms: _325  and  _326
REMARK  131  A    between atoms: _331  and  _333
REMARK  132  A    between atoms: _333  and  _334
REMARK  133  A    between atoms: _333  and  _336
REMARK  134  A    between atoms: _336  and  _337
REMARK  135  A    between atoms: _337  and  _338
REMARK  136  A    between atoms: _343  and  _345
REMARK  137  A    between atoms: _345  and  _346
REMARK  138  A    between atoms: _345  and  _348
REMARK  139  A    between atoms: _348  and  _349
REMARK  140  A    between atoms: _352  and  _354
REMARK  141  A    between atoms: _354  and  _355
REMARK  142  A    between atoms: _354  and  _357
REMARK  143  A    between atoms: _357  and  _358
REMARK  144  A    between atoms: _361  and  _363
REMARK  145  A    between atoms: _363  and  _364
REMARK  146  A    between atoms: _363  and  _366
REMARK  147  A    between atoms: _366  and  _367
REMARK  148  A    between atoms: _367  and  _368
REMARK  149  A    between atoms: _368  and  _369
REMARK  150  A    between atoms: _378  and  _380
REMARK  151  A    between atoms: _380  and  _381
REMARK  152  A    between atoms: _380  and  _383
REMARK  153  A    between atoms: _383  and  _384
REMARK  154  A    between atoms: _384  and  _385
REMARK  155  A    between atoms: _388  and  _390
REMARK  156  A    between atoms: _390  and  _391
REMARK  157  A    between atoms: _390  and  _393
REMARK  158  A    between atoms: _393  and  _394
REMARK  159  A    between atoms: _396  and  _398
REMARK  160  A    between atoms: _398  and  _399
REMARK  161  A    between atoms: _398  and  _401
REMARK  162  A    between atoms: _401  and  _402
REMARK  163  A    between atoms: _405  and  _407
REMARK  164  A    between atoms: _407  and  _408
REMARK  165  A    between atoms: _407  and  _410
REMARK  166  A    between atoms: _410  and  _411
REMARK  167  A    between atoms: _411  and  _412
REMARK  168  A    between atoms: _412  and  _413
REMARK  169  A    between atoms: _422  and  _424
REMARK  170  A    between atoms: _424  and  _425
REMARK  171  A    between atoms: _424  and  _427
REMARK  172  A    between atoms: _427  and  _428
REMARK  173  A    between atoms: _433  and  _435
REMARK  174  A    between atoms: _435  and  _436
REMARK  175  A    between atoms: _435  and  _438
REMARK  176  A    between atoms: _438  and  _439
REMARK  177  A    between atoms: _442  and  _444
REMARK  178  A    between atoms: _444  and  _445
REMARK  179  A    between atoms: _444  and  _447
REMARK  180  A    between atoms: _447  and  _448
REMARK  181  A    between atoms: _453  and  _454
REMARK  182  A    between atoms: _456  and  _458
REMARK  183  A    between atoms: _458  and  _459
REMARK  184  A    between atoms: _458  and  _461
REMARK  185  A    between atoms: _461  and  _462
REMARK  186  A    between atoms: _465  and  _467
REMARK  187  A    between atoms: _467  and  _468
REMARK  188  A    between atoms: _467  and  _470
REMARK  189  A    between atoms: _470  and  _471
REMARK  190  A    between atoms: _471  and  _472
REMARK  191  A    between atoms: _477  and  _479
REMARK  192  A    between atoms: _479  and  _480
REMARK  193  A    between atoms: _479  and  _482
REMARK  194  A    between atoms: _482  and  _483
REMARK  195  A    between atoms: _483  and  _484
REMARK  196  A    between atoms: _484  and  _485
REMARK  197  A    between atoms: _494  and  _496
REMARK  198  A    between atoms: _496  and  _497
REMARK  199  A    between atoms: _496  and  _499
REMARK  200  A    between atoms: _499  and  _500
REMARK  201  A    between atoms: _505  and  _506
REMARK  202  A    between atoms: _508  and  _510
REMARK  203  A    between atoms: _510  and  _511
REMARK  204  A    between atoms: _513  and  _515
REMARK  205  A    between atoms: _515  and  _516
REMARK  206  A    between atoms: _515  and  _518
REMARK  207  A    between atoms: _518  and  _519
REMARK  208  A    between atoms: _524  and  _526
REMARK  209  A    between atoms: _526  and  _527
REMARK  210  A    between atoms: _526  and  _529
REMARK  211  A    between atoms: _529  and  _530
REMARK  212  A    between atoms: _530  and  _531
REMARK  213  A    between atoms: _536  and  _538
REMARK  214  A    between atoms: _538  and  _539
REMARK  215  A    between atoms: _538  and  _541
REMARK  216  A    between atoms: _541  and  _542
REMARK  217  A    between atoms: _548  and  _550
REMARK  218  A    between atoms: _550  and  _551
REMARK  219  A    between atoms: _554  and  _556
REMARK  220  A    between atoms: _556  and  _557
REMARK  221  A    between atoms: _556  and  _559
REMARK  222  A    between atoms: _559  and  _560
REMARK  223  A    between atoms: _565  and  _566
REMARK  224  A    between atoms: _568  and  _570
REMARK  225  A    between atoms: _570  and  _571
REMARK  226  A    between atoms: _570  and  _573
REMARK  227  A    between atoms: _573  and  _574
REMARK  228  A    between atoms: _579  and  _580
REMARK  229  A    between atoms: _582  and  _584
REMARK  230  A    between atoms: _584  and  _585
REMARK  231  A    between atoms: _584  and  _587
REMARK  232  A    between atoms: _587  and  _588
REMARK  233  A    between atoms: _591  and  _593
REMARK  234  A    between atoms: _593  and  _594
REMARK  235  A    between atoms: _593  and  _596
REMARK  236  A    between atoms: _596  and  _597
REMARK  237  A    between atoms: _607  and  _609
REMARK  238  A    between atoms: _609  and  _610
REMARK  239  A    between atoms: _613  and  _615
REMARK  240  A    between atoms: _615  and  _616
REMARK  241  A    between atoms: _619  and  _621
REMARK  242  A    between atoms: _621  and  _622
REMARK  243  A    between atoms: _621  and  _624
REMARK  244  A    between atoms: _624  and  _625
REMARK  245  A    between atoms: _625  and  _626
REMARK  246  A    between atoms: _631  and  _633
REMARK  247  A    between atoms: _633  and  _634
REMARK  248  A    between atoms: _633  and  _636
REMARK  249  A    between atoms: _636  and  _637
REMARK  250  A    between atoms: _640  and  _642
REMARK  251  A    between atoms: _642  and  _643
REMARK  252  A    between atoms: _642  and  _645
REMARK  253  A    between atoms: _645  and  _646
REMARK  254  A    between atoms: _649  and  _651
REMARK  255  A    between atoms: _651  and  _652
REMARK  256  A    between atoms: _651  and  _654
REMARK  257  A    between atoms: _654  and  _655
REMARK  258  A    between atoms: _655  and  _656
REMARK  259  A    between atoms: _661  and  _663
REMARK  260  A    between atoms: _663  and  _664
REMARK  261  A    between atoms: _663  and  _666
REMARK  262  A    between atoms: _666  and  _667
REMARK  263  A    between atoms: _667  and  _668
REMARK  264  A    between atoms: _668  and  _669
REMARK  265  A    between atoms: _678  and  _680
REMARK  266  A    between atoms: _680  and  _681
REMARK  267  A    between atoms: _680  and  _683
REMARK  268  A    between atoms: _683  and  _684
REMARK  269  A    between atoms: _684  and  _685
REMARK  270  A    between atoms: _685  and  _686
REMARK  271  A    between atoms: _686  and  _687
REMARK  272  A    between atoms: _691  and  _693
REMARK  273  A    between atoms: _693  and  _694
REMARK  274  A    between atoms: _693  and  _696
REMARK  275  A    between atoms: _696  and  _697
REMARK  276  A    between atoms: _707  and  _709
REMARK  277  A    between atoms: _709  and  _710
REMARK  278  A    between atoms: _713  and  _715
REMARK  279  A    between atoms: _715  and  _716
REMARK  280  A    between atoms: _719  and  _721
REMARK  281  A    between atoms: _721  and  _722
REMARK  282  A    between atoms: _721  and  _724
REMARK  283  A    between atoms: _724  and  _725
REMARK  284  A    between atoms: _725  and  _726
REMARK  285  A    between atoms: _726  and  _727
REMARK  286  A    between atoms: _736  and  _738
REMARK  287  A    between atoms: _738  and  _739
REMARK  288  A    between atoms: _738  and  _741
REMARK  289  A    between atoms: _744  and  _746
REMARK  290  A    between atoms: _746  and  _747
REMARK  291  A    between atoms: _750  and  _752
REMARK  292  A    between atoms: _752  and  _753
REMARK  293  A    between atoms: _752  and  _755
REMARK  294  A    between atoms: _755  and  _756
REMARK  295  A    between atoms: _756  and  _757
REMARK  296  A    between atoms: _760  and  _762
REMARK  297  A    between atoms: _762  and  _763
REMARK  298  A    between atoms: _762  and  _765
REMARK  299  A    between atoms: _765  and  _766
REMARK  300  A    between atoms: _766  and  _767
REMARK  301  A    between atoms: _772  and  _774
REMARK  302  A    between atoms: _774  and  _775
REMARK  303  A    between atoms: _774  and  _777
REMARK  304  A    between atoms: _777  and  _778
REMARK  305  A    between atoms: _781  and  _783
REMARK  306  A    between atoms: _783  and  _784
REMARK  307  A    between atoms: _783  and  _786
REMARK  308  A    between atoms: _786  and  _787
REMARK  309  A    between atoms: _787  and  _788
REMARK  310  A    between atoms: _788  and  _789
REMARK  311  A    between atoms: _798  and  _800
REMARK  312  A    between atoms: _800  and  _801
REMARK  313  A    between atoms: _800  and  _803
REMARK  314  A    between atoms: _803  and  _804
REMARK  315  A    between atoms: _807  and  _809
REMARK  316  A    between atoms: _809  and  _810
REMARK  317  A    between atoms: _809  and  _812
REMARK  318  A    between atoms: _812  and  _813
REMARK  319  A    between atoms: _818  and  _819
REMARK  320  A    between atoms: _821  and  _823
REMARK  321  A    between atoms: _823  and  _824
REMARK  322  A    between atoms: _823  and  _826
REMARK  323  A    between atoms: _826  and  _827
REMARK  324  A    between atoms: _830  and  _832
REMARK  325  A    between atoms: _832  and  _833
REMARK  326  A    between atoms: _832  and  _835
REMARK  327  A    between atoms: _835  and  _836
REMARK  328  A    between atoms: _839  and  _841
REMARK  329  A    between atoms: _841  and  _842
REMARK  330  A    between atoms: _841  and  _844
REMARK  331  A    between atoms: _846  and  _848
REMARK  332  A    between atoms: _848  and  _849
REMARK  333  A    between atoms: _848  and  _851
REMARK  334  A    between atoms: _854  and  _856
REMARK  335  A    between atoms: _856  and  _857
REMARK  336  A    between atoms: _856  and  _859
REMARK  337  A    between atoms: _859  and  _860
REMARK  338  A    between atoms: _860  and  _861
REMARK  339  A    between atoms: _864  and  _866
REMARK  340  A    between atoms: _866  and  _867
REMARK  341  A    between atoms: _866  and  _869
REMARK  342  A    between atoms: _869  and  _870
REMARK  343  A    between atoms: _880  and  _882
REMARK  344  A    between atoms: _882  and  _883
REMARK  345  A    between atoms: _882  and  _885
REMARK  346  A    between atoms: _885  and  _886
REMARK  347  A    between atoms: _889  and  _891
REMARK  348  A    between atoms: _891  and  _892
REMARK  349  A    between atoms: _891  and  _894
REMARK  350  A    between atoms: _894  and  _895
REMARK  351  A    between atoms: _900  and  _901
REMARK                            x       y       z     vdW  Elec       q    Type
REMARK                         _______ _______ _______ _____ _____    ______ ____
ROOT
ATOM      1  O   HOH     1      -1.982   5.114  42.961  0.00  0.00    +0.000 OA
ENDROOT
TORSDOF 0
REMARK  Name = ../refined-set-2016/4o2c/4o2c_pocket.pdb
REMARK  351 active torsions:
REMARK  status: ('A' for Active; 'I' for Inactive)
REMARK    1  A    between atoms: _1  and  _3
REMARK    2  A    between atoms: _3  and  _4
REMARK    3  A    between atoms: _3  and  _6
REMARK    4  A    between atoms: _6  and  _7
REMARK    5  A    between atoms: _7  and  _8
REMARK    6  A    between atoms: _10  and  _12
REMARK    7  A    between atoms: _12  and  _13
REMARK    8  A    between atoms: _12  and  _15
REMARK    9  A    between atoms: _15  and  _16
REMARK   10  A    between atoms: _16  and  _17
REMARK   11  A    between atoms: _17  and  _18
REMARK   12  A    between atoms: _27  and  _29
REMARK   13  A    between atoms: _29  and  _30
REMARK   14  A    between atoms: _29  and  _32
REMARK   15  A    between atoms: _32  and  _33
REMARK   16  A    between atoms: _38  and  _39
REMARK   17  A    between atoms: _41  and  _43
REMARK   18  A    between atoms: _43  and  _44
REMARK   19  A    between atoms: _43  and  _46
REMARK   20  A    between atoms: _46  and  _47
REMARK   21  A    between atoms: _53  and  _55
REMARK   22  A    between atoms: _55  and  _56
REMARK   23  A    between atoms: _55  and  _58
REMARK   24  A    between atoms: _58  and  _59
REMARK   25  A    between atoms: _64  and  _65
REMARK   26  A    between atoms: _67  and  _69
REMARK   27  A    between atoms: _69  and  _70
REMARK   28  A    between atoms: _69  and  _72
REMARK   29  A    between atoms: _72  and  _73
REMARK   30  A    between atoms: _79  and  _81
REMARK   31  A    between atoms: _81  and  _82
REMARK   32  A    between atoms: _81  and  _84
REMARK   33  A    between atoms: _84  and  _85
REMARK   34  A    between atoms: _88  and  _90
REMARK   35  A    between atoms: _90  and  _91
REMARK   36  A    between atoms: _90  and  _93
REMARK   37  A    between atoms: _93  and  _94
REMARK   38  A    between atoms: _96  and  _98
REMARK   39  A    between atoms: _98  and  _99
REMARK   40  A    between atoms: _98  and  _101
REMARK   41  A    between atoms: _104  and  _106
REMARK   42  A    between atoms: _106  and  _107
REMARK   43  A    between atoms: _109  and  _111
REMARK   44  A    between atoms: _111  and  _112
REMARK   45  A    between atoms: _111  and  _114
REMARK   46  A    between atoms: _114  and  _115
REMARK   47  A    between atoms: _121  and  _123
REMARK   48  A    between atoms: _123  and  _124
REMARK   49  A    between atoms: _123  and  _126
REMARK   50  A    between atoms: _129  and  _131
REMARK   51  A    between atoms: _131  and  _132
REMARK   52  A    between atoms: _131  and  _134
REMARK   53  A    between atoms: _134  and  _135
REMARK   54  A    between atoms: _135  and  _136
REMARK   55  A    between atoms: _136  and  _137
REMARK   56  A    between atoms: _146  and  _148
REMARK   57  A    between atoms: _148  and  _149
REMARK   58  A    between atoms: _148  and  _151
REMARK   59  A    between atoms: _151  and  _152
REMARK   60  A    between atoms: _158  and  _160
REMARK   61  A    between atoms: _160  and  _161
REMARK   62  A    between atoms: _160  and  _163
REMARK   63  A    between atoms: _163  and  _164
REMARK   64  A    between atoms: _164  and  _165
REMARK   65  A    between atoms: _168  and  _170
REMARK   66  A    between atoms: _170  and  _171
REMARK   67  A    between atoms: _170  and  _173
REMARK   68  A    between atoms: _173  and  _174
REMARK   69  A    between atoms: _174  and  _175
REMARK   70  A    between atoms: _178  and  _180
REMARK   71  A    between atoms: _180  and  _181
REMARK   72  A    between atoms: _180  and  _183
REMARK   73  A    between atoms: _183  and  _184
REMARK   74  A    between atoms: _187  and  _189
REMARK   75  A    between atoms: _189  and  _190
REMARK   76  A    between atoms: _189  and  _192
REMARK   77  A    between atoms: _192  and  _193
REMARK   78  A    between atoms: _193  and  _194
REMARK   79  A    between atoms: _197  and  _199
REMARK   80  A    between atoms: _199  and  _200
REMARK   81  A    between atoms: _199  and  _202
REMARK   82  A    between atoms: _202  and  _203
REMARK   83  A    between atoms: _203  and  _204
REMARK   84  A    between atoms: _207  and  _209
REMARK   85  A    between atoms: _209  and  _210
REMARK   86  A    between atoms: _209  and  _212
REMARK   87  A    between atoms: _212  and  _213
REMARK   88  A    between atoms: _218  and  _219
REMARK   89  A    between atoms: _221  and  _223
REMARK   90  A    between atoms: _223  and  _224
REMARK   91  A    between atoms: _223  and  _226
REMARK   92  A    between atoms: _226  and  _227
REMARK   93  A    between atoms: _237  and  _239
REMARK   94  A    between atoms: _239  and  _240
REMARK   95  A    between atoms: _239  and  _242
REMARK   96  A    between atoms: _242  and  _243
REMARK   97  A    between atoms: _246  and  _248
REMARK   98  A    between atoms: _248  and  _249
REMARK   99  A    between atoms: _248  and  _251
REMARK  100  A    between atoms: _251  and  _252
REMARK  101  A    between atoms: _252  and  _253
REMARK  102  A    between atoms: _253  and  _254
REMARK  103  A    between atoms: _263  and  _265
REMARK  104  A    between atoms: _265  and  _266
REMARK  105  A    between atoms: _265  and  _268
REMARK  106  A    between atoms: _268  and  _269
REMARK  107  A    between atoms: _274  and  _276
REMARK  108  A    between atoms: _276  and  _277
REMARK  109  A    between atoms: _276  and  _279
REMARK  110  A    between atoms: _279  and  _280
REMARK  111  A    between atoms: _283  and  _285
REMARK  112  A    between atoms: _285  and  _286
REMARK  113  A    between atoms: _285  and  _288
REMARK  114  A    between atoms: _288  and  _289
REMARK  115  A    between atoms: _289  and  _290
REMARK  116  A    between atoms: _295  and  _297
REMARK  117  A    between atoms: _297  and  _298
REMARK  118  A    between atoms: _297  and  _300
REMARK  119  A    between atoms: _300  and  _301
REMARK  120  A    between atoms: _304  and  _306
REMARK  121  A    between atoms: _306  and  _307
REMARK  122  A    between atoms: _306  and  _309
REMARK  123  A    between atoms: _311  and  _313
REMARK  124  A    between atoms: _313  and  _314
REMARK  125  A    between atoms: _313  and  _316
REMARK  126  A    between atoms: _316  and  _317
REMARK  127  A    between atoms: _320  and  _322
REMARK  128  A    between atoms: _322  and  _323
REMARK  129  A    between atoms: _322  and  _325
REMARK  130  A    between atoms: _325  and  _326
REMARK  131  A    between atoms: _331  and  _333
REMARK  132  A    between atoms: _333  and  _334
REMARK  133  A    between atoms: _333  and  _336
REMARK  134  A    between atoms: _336  and  _337
REMARK  135  A    between atoms: _337  and  _338
REMARK  136  A    between atoms: _343  and  _345
REMARK  137  A    between atoms: _345  and  _346
REMARK  138  A    between atoms: _345  and  _348
REMARK  139  A    between atoms: _348  and  _349
REMARK  140  A    between atoms: _352  and  _354
REMARK  141  A    between atoms: _354  and  _355
REMARK  142  A    between atoms: _354  and  _357
REMARK  143  A    between atoms: _357  and  _358
REMARK  144  A    between atoms: _361  and  _363
REMARK  145  A    between atoms: _363  and  _364
REMARK  146  A    between atoms: _363  and  _366
REMARK  147  A    between atoms: _366  and  _367
REMARK  148  A    between atoms: _367  and  _368
REMARK  149  A    between atoms: _368  and  _369
REMARK  150  A    between atoms: _378  and  _380
REMARK  151  A    between atoms: _380  and  _381
REMARK  152  A    between atoms: _380  and  _383
REMARK  153  A    between atoms: _383  and  _384
REMARK  154  A    between atoms: _384  and  _385
REMARK  155  A    between atoms: _388  and  _390
REMARK  156  A    between atoms: _390  and  _391
REMARK  157  A    between atoms: _390  and  _393
REMARK  158  A    between atoms: _393  and  _394
REMARK  159  A    between atoms: _396  and  _398
REMARK  160  A    between atoms: _398  and  _399
REMARK  161  A    between atoms: _398  and  _401
REMARK  162  A    between atoms: _401  and  _402
REMARK  163  A    between atoms: _405  and  _407
REMARK  164  A    between atoms: _407  and  _408
REMARK  165  A    between atoms: _407  and  _410
REMARK  166  A    between atoms: _410  and  _411
REMARK  167  A    between atoms: _411  and  _412
REMARK  168  A    between atoms: _412  and  _413
REMARK  169  A    between atoms: _422  and  _424
REMARK  170  A    between atoms: _424  and  _425
REMARK  171  A    between atoms: _424  and  _427
REMARK  172  A    between atoms: _427  and  _428
REMARK  173  A    between atoms: _433  and  _435
REMARK  174  A    between atoms: _435  and  _436
REMARK  175  A    between atoms: _435  and  _438
REMARK  176  A    between atoms: _438  and  _439
REMARK  177  A    between atoms: _442  and  _444
REMARK  178  A    between atoms: _444  and  _445
REMARK  179  A    between atoms: _444  and  _447
REMARK  180  A    between atoms: _447  and  _448
REMARK  181  A    between atoms: _453  and  _454
REMARK  182  A    between atoms: _456  and  _458
REMARK  183  A    between atoms: _458  and  _459
REMARK  184  A    between atoms: _458  and  _461
REMARK  185  A    between atoms: _461  and  _462
REMARK  186  A    between atoms: _465  and  _467
REMARK  187  A    between atoms: _467  and  _468
REMARK  188  A    between atoms: _467  and  _470
REMARK  189  A    between atoms: _470  and  _471
REMARK  190  A    between atoms: _471  and  _472
REMARK  191  A    between atoms: _477  and  _479
REMARK  192  A    between atoms: _479  and  _480
REMARK  193  A    between atoms: _479  and  _482
REMARK  194  A    between atoms: _482  and  _483
REMARK  195  A    between atoms: _483  and  _484
REMARK  196  A    between atoms: _484  and  _485
REMARK  197  A    between atoms: _494  and  _496
REMARK  198  A    between atoms: _496  and  _497
REMARK  199  A    between atoms: _496  and  _499
REMARK  200  A    between atoms: _499  and  _500
REMARK  201  A    between atoms: _505  and  _506
REMARK  202  A    between atoms: _508  and  _510
REMARK  203  A    between atoms: _510  and  _511
REMARK  204  A    between atoms: _513  and  _515
REMARK  205  A    between atoms: _515  and  _516
REMARK  206  A    between atoms: _515  and  _518
REMARK  207  A    between atoms: _518  and  _519
REMARK  208  A    between atoms: _524  and  _526
REMARK  209  A    between atoms: _526  and  _527
REMARK  210  A    between atoms: _526  and  _529
REMARK  211  A    between atoms: _529  and  _530
REMARK  212  A    between atoms: _530  and  _531
REMARK  213  A    between atoms: _536  and  _538
REMARK  214  A    between atoms: _538  and  _539
REMARK  215  A    between atoms: _538  and  _541
REMARK  216  A    between atoms: _541  and  _542
REMARK  217  A    between atoms: _548  and  _550
REMARK  218  A    between atoms: _550  and  _551
REMARK  219  A    between atoms: _554  and  _556
REMARK  220  A    between atoms: _556  and  _557
REMARK  221  A    between atoms: _556  and  _559
REMARK  222  A    between atoms: _559  and  _560
REMARK  223  A    between atoms: _565  and  _566
REMARK  224  A    between atoms: _568  and  _570
REMARK  225  A    between atoms: _570  and  _571
REMARK  226  A    between atoms: _570  and  _573
REMARK  227  A    between atoms: _573  and  _574
REMARK  228  A    between atoms: _579  and  _580
REMARK  229  A    between atoms: _582  and  _584
REMARK  230  A    between atoms: _584  and  _585
REMARK  231  A    between atoms: _584  and  _587
REMARK  232  A    between atoms: _587  and  _588
REMARK  233  A    between atoms: _591  and  _593
REMARK  234  A    between atoms: _593  and  _594
REMARK  235  A    between atoms: _593  and  _596
REMARK  236  A    between atoms: _596  and  _597
REMARK  237  A    between atoms: _607  and  _609
REMARK  238  A    between atoms: _609  and  _610
REMARK  239  A    between atoms: _613  and  _615
REMARK  240  A    between atoms: _615  and  _616
REMARK  241  A    between atoms: _619  and  _621
REMARK  242  A    between atoms: _621  and  _622
REMARK  243  A    between atoms: _621  and  _624
REMARK  244  A    between atoms: _624  and  _625
REMARK  245  A    between atoms: _625  and  _626
REMARK  246  A    between atoms: _631  and  _633
REMARK  247  A    between atoms: _633  and  _634
REMARK  248  A    between atoms: _633  and  _636
REMARK  249  A    between atoms: _636  and  _637
REMARK  250  A    between atoms: _640  and  _642
REMARK  251  A    between atoms: _642  and  _643
REMARK  252  A    between atoms: _642  and  _645
REMARK  253  A    between atoms: _645  and  _646
REMARK  254  A    between atoms: _649  and  _651
REMARK  255  A    between atoms: _651  and  _652
REMARK  256  A    between atoms: _651  and  _654
REMARK  257  A    between atoms: _654  and  _655
REMARK  258  A    between atoms: _655  and  _656
REMARK  259  A    between atoms: _661  and  _663
REMARK  260  A    between atoms: _663  and  _664
REMARK  261  A    between atoms: _663  and  _666
REMARK  262  A    between atoms: _666  and  _667
REMARK  263  A    between atoms: _667  and  _668
REMARK  264  A    between atoms: _668  and  _669
REMARK  265  A    between atoms: _678  and  _680
REMARK  266  A    between atoms: _680  and  _681
REMARK  267  A    between atoms: _680  and  _683
REMARK  268  A    between atoms: _683  and  _684
REMARK  269  A    between atoms: _684  and  _685
REMARK  270  A    between atoms: _685  and  _686
REMARK  271  A    between atoms: _686  and  _687
REMARK  272  A    between atoms: _691  and  _693
REMARK  273  A    between atoms: _693  and  _694
REMARK  274  A    between atoms: _693  and  _696
REMARK  275  A    between atoms: _696  and  _697
REMARK  276  A    between atoms: _707  and  _709
REMARK  277  A    between atoms: _709  and  _710
REMARK  278  A    between atoms: _713  and  _715
REMARK  279  A    between atoms: _715  and  _716
REMARK  280  A    between atoms: _719  and  _721
REMARK  281  A    between atoms: _721  and  _722
REMARK  282  A    between atoms: _721  and  _724
REMARK  283  A    between atoms: _724  and  _725
REMARK  284  A    between atoms: _725  and  _726
REMARK  285  A    between atoms: _726  and  _727
REMARK  286  A    between atoms: _736  and  _738
REMARK  287  A    between atoms: _738  and  _739
REMARK  288  A    between atoms: _738  and  _741
REMARK  289  A    between atoms: _744  and  _746
REMARK  290  A    between atoms: _746  and  _747
REMARK  291  A    between atoms: _750  and  _752
REMARK  292  A    between atoms: _752  and  _753
REMARK  293  A    between atoms: _752  and  _755
REMARK  294  A    between atoms: _755  and  _756
REMARK  295  A    between atoms: _756  and  _757
REMARK  296  A    between atoms: _760  and  _762
REMARK  297  A    between atoms: _762  and  _763
REMARK  298  A    between atoms: _762  and  _765
REMARK  299  A    between atoms: _765  and  _766
REMARK  300  A    between atoms: _766  and  _767
REMARK  301  A    between atoms: _772  and  _774
REMARK  302  A    between atoms: _774  and  _775
REMARK  303  A    between atoms: _774  and  _777
REMARK  304  A    between atoms: _777  and  _778
REMARK  305  A    between atoms: _781  and  _783
REMARK  306  A    between atoms: _783  and  _784
REMARK  307  A    between atoms: _783  and  _786
REMARK  308  A    between atoms: _786  and  _787
REMARK  309  A    between atoms: _787  and  _788
REMARK  310  A    between atoms: _788  and  _789
REMARK  311  A    between atoms: _798  and  _800
REMARK  312  A    between atoms: _800  and  _801
REMARK  313  A    between atoms: _800  and  _803
REMARK  314  A    between atoms: _803  and  _804
REMARK  315  A    between atoms: _807  and  _809
REMARK  316  A    between atoms: _809  and  _810
REMARK  317  A    between atoms: _809  and  _812
REMARK  318  A    between atoms: _812  and  _813
REMARK  319  A    between atoms: _818  and  _819
REMARK  320  A    between atoms: _821  and  _823
REMARK  321  A    between atoms: _823  and  _824
REMARK  322  A    between atoms: _823  and  _826
REMARK  323  A    between atoms: _826  and  _827
REMARK  324  A    between atoms: _830  and  _832
REMARK  325  A    between atoms: _832  and  _833
REMARK  326  A    between atoms: _832  and  _835
REMARK  327  A    between atoms: _835  and  _836
REMARK  328  A    between atoms: _839  and  _841
REMARK  329  A    between atoms: _841  and  _842
REMARK  330  A    between atoms: _841  and  _844
REMARK  331  A    between atoms: _846  and  _848
REMARK  332  A    between atoms: _848  and  _849
REMARK  333  A    between atoms: _848  and  _851
REMARK  334  A    between atoms: _854  and  _856
REMARK  335  A    between atoms: _856  and  _857
REMARK  336  A    between atoms: _856  and  _859
REMARK  337  A    between atoms: _859  and  _860
REMARK  338  A    between atoms: _860  and  _861
REMARK  339  A    between atoms: _864  and  _866
REMARK  340  A    between atoms: _866  and  _867
REMARK  341  A    between atoms: _866  and  _869
REMARK  342  A    between atoms: _869  and  _870
REMARK  343  A    between atoms: _880  and  _882
REMARK  344  A    between atoms: _882  and  _883
REMARK  345  A    between atoms: _882  and  _885
REMARK  346  A    between atoms: _885  and  _886
REMARK  347  A    between atoms: _889  and  _891
REMARK  348  A    between atoms: _891  and  _892
REMARK  349  A    between atoms: _891  and  _894
REMARK  350  A    between atoms: _894  and  _895
REMARK  351  A    between atoms: _900  and  _901
REMARK                            x       y       z     vdW  Elec       q    Type
REMARK                         _______ _______ _______ _____ _____    ______ ____
ROOT
ATOM      1  O   HOH     1       5.607  19.896  41.934  0.00  0.00    +0.000 OA
ENDROOT
TORSDOF 0
REMARK  Name = ../refined-set-2016/4o2c/4o2c_pocket.pdb
REMARK  351 active torsions:
REMARK  status: ('A' for Active; 'I' for Inactive)
REMARK    1  A    between atoms: _1  and  _3
REMARK    2  A    between atoms: _3  and  _4
REMARK    3  A    between atoms: _3  and  _6
REMARK    4  A    between atoms: _6  and  _7
REMARK    5  A    between atoms: _7  and  _8
REMARK    6  A    between atoms: _10  and  _12
REMARK    7  A    between atoms: _12  and  _13
REMARK    8  A    between atoms: _12  and  _15
REMARK    9  A    between atoms: _15  and  _16
REMARK   10  A    between atoms: _16  and  _17
REMARK   11  A    between atoms: _17  and  _18
REMARK   12  A    between atoms: _27  and  _29
REMARK   13  A    between atoms: _29  and  _30
REMARK   14  A    between atoms: _29  and  _32
REMARK   15  A    between atoms: _32  and  _33
REMARK   16  A    between atoms: _38  and  _39
REMARK   17  A    between atoms: _41  and  _43
REMARK   18  A    between atoms: _43  and  _44
REMARK   19  A    between atoms: _43  and  _46
REMARK   20  A    between atoms: _46  and  _47
REMARK   21  A    between atoms: _53  and  _55
REMARK   22  A    between atoms: _55  and  _56
REMARK   23  A    between atoms: _55  and  _58
REMARK   24  A    between atoms: _58  and  _59
REMARK   25  A    between atoms: _64  and  _65
REMARK   26  A    between atoms: _67  and  _69
REMARK   27  A    between atoms: _69  and  _70
REMARK   28  A    between atoms: _69  and  _72
REMARK   29  A    between atoms: _72  and  _73
REMARK   30  A    between atoms: _79  and  _81
REMARK   31  A    between atoms: _81  and  _82
REMARK   32  A    between atoms: _81  and  _84
REMARK   33  A    between atoms: _84  and  _85
REMARK   34  A    between atoms: _88  and  _90
REMARK   35  A    between atoms: _90  and  _91
REMARK   36  A    between atoms: _90  and  _93
REMARK   37  A    between atoms: _93  and  _94
REMARK   38  A    between atoms: _96  and  _98
REMARK   39  A    between atoms: _98  and  _99
REMARK   40  A    between atoms: _98  and  _101
REMARK   41  A    between atoms: _104  and  _106
REMARK   42  A    between atoms: _106  and  _107
REMARK   43  A    between atoms: _109  and  _111
REMARK   44  A    between atoms: _111  and  _112
REMARK   45  A    between atoms: _111  and  _114
REMARK   46  A    between atoms: _114  and  _115
REMARK   47  A    between atoms: _121  and  _123
REMARK   48  A    between atoms: _123  and  _124
REMARK   49  A    between atoms: _123  and  _126
REMARK   50  A    between atoms: _129  and  _131
REMARK   51  A    between atoms: _131  and  _132
REMARK   52  A    between atoms: _131  and  _134
REMARK   53  A    between atoms: _134  and  _135
REMARK   54  A    between atoms: _135  and  _136
REMARK   55  A    between atoms: _136  and  _137
REMARK   56  A    between atoms: _146  and  _148
REMARK   57  A    between atoms: _148  and  _149
REMARK   58  A    between atoms: _148  and  _151
REMARK   59  A    between atoms: _151  and  _152
REMARK   60  A    between atoms: _158  and  _160
REMARK   61  A    between atoms: _160  and  _161
REMARK   62  A    between atoms: _160  and  _163
REMARK   63  A    between atoms: _163  and  _164
REMARK   64  A    between atoms: _164  and  _165
REMARK   65  A    between atoms: _168  and  _170
REMARK   66  A    between atoms: _170  and  _171
REMARK   67  A    between atoms: _170  and  _173
REMARK   68  A    between atoms: _173  and  _174
REMARK   69  A    between atoms: _174  and  _175
REMARK   70  A    between atoms: _178  and  _180
REMARK   71  A    between atoms: _180  and  _181
REMARK   72  A    between atoms: _180  and  _183
REMARK   73  A    between atoms: _183  and  _184
REMARK   74  A    between atoms: _187  and  _189
REMARK   75  A    between atoms: _189  and  _190
REMARK   76  A    between atoms: _189  and  _192
REMARK   77  A    between atoms: _192  and  _193
REMARK   78  A    between atoms: _193  and  _194
REMARK   79  A    between atoms: _197  and  _199
REMARK   80  A    between atoms: _199  and  _200
REMARK   81  A    between atoms: _199  and  _202
REMARK   82  A    between atoms: _202  and  _203
REMARK   83  A    between atoms: _203  and  _204
REMARK   84  A    between atoms: _207  and  _209
REMARK   85  A    between atoms: _209  and  _210
REMARK   86  A    between atoms: _209  and  _212
REMARK   87  A    between atoms: _212  and  _213
REMARK   88  A    between atoms: _218  and  _219
REMARK   89  A    between atoms: _221  and  _223
REMARK   90  A    between atoms: _223  and  _224
REMARK   91  A    between atoms: _223  and  _226
REMARK   92  A    between atoms: _226  and  _227
REMARK   93  A    between atoms: _237  and  _239
REMARK   94  A    between atoms: _239  and  _240
REMARK   95  A    between atoms: _239  and  _242
REMARK   96  A    between atoms: _242  and  _243
REMARK   97  A    between atoms: _246  and  _248
REMARK   98  A    between atoms: _248  and  _249
REMARK   99  A    between atoms: _248  and  _251
REMARK  100  A    between atoms: _251  and  _252
REMARK  101  A    between atoms: _252  and  _253
REMARK  102  A    between atoms: _253  and  _254
REMARK  103  A    between atoms: _263  and  _265
REMARK  104  A    between atoms: _265  and  _266
REMARK  105  A    between atoms: _265  and  _268
REMARK  106  A    between atoms: _268  and  _269
REMARK  107  A    between atoms: _274  and  _276
REMARK  108  A    between atoms: _276  and  _277
REMARK  109  A    between atoms: _276  and  _279
REMARK  110  A    between atoms: _279  and  _280
REMARK  111  A    between atoms: _283  and  _285
REMARK  112  A    between atoms: _285  and  _286
REMARK  113  A    between atoms: _285  and  _288
REMARK  114  A    between atoms: _288  and  _289
REMARK  115  A    between atoms: _289  and  _290
REMARK  116  A    between atoms: _295  and  _297
REMARK  117  A    between atoms: _297  and  _298
REMARK  118  A    between atoms: _297  and  _300
REMARK  119  A    between atoms: _300  and  _301
REMARK  120  A    between atoms: _304  and  _306
REMARK  121  A    between atoms: _306  and  _307
REMARK  122  A    between atoms: _306  and  _309
REMARK  123  A    between atoms: _311  and  _313
REMARK  124  A    between atoms: _313  and  _314
REMARK  125  A    between atoms: _313  and  _316
REMARK  126  A    between atoms: _316  and  _317
REMARK  127  A    between atoms: _320  and  _322
REMARK  128  A    between atoms: _322  and  _323
REMARK  129  A    between atoms: _322  and  _325
REMARK  130  A    between atoms: _325  and  _326
REMARK  131  A    between atoms: _331  and  _333
REMARK  132  A    between atoms: _333  and  _334
REMARK  133  A    between atoms: _333  and  _336
REMARK  134  A    between atoms: _336  and  _337
REMARK  135  A    between atoms: _337  and  _338
REMARK  136  A    between atoms: _343  and  _345
REMARK  137  A    between atoms: _345  and  _346
REMARK  138  A    between atoms: _345  and  _348
REMARK  139  A    between atoms: _348  and  _349
REMARK  140  A    between atoms: _352  and  _354
REMARK  141  A    between atoms: _354  and  _355
REMARK  142  A    between atoms: _354  and  _357
REMARK  143  A    between atoms: _357  and  _358
REMARK  144  A    between atoms: _361  and  _363
REMARK  145  A    between atoms: _363  and  _364
REMARK  146  A    between atoms: _363  and  _366
REMARK  147  A    between atoms: _366  and  _367
REMARK  148  A    between atoms: _367  and  _368
REMARK  149  A    between atoms: _368  and  _369
REMARK  150  A    between atoms: _378  and  _380
REMARK  151  A    between atoms: _380  and  _381
REMARK  152  A    between atoms: _380  and  _383
REMARK  153  A    between atoms: _383  and  _384
REMARK  154  A    between atoms: _384  and  _385
REMARK  155  A    between atoms: _388  and  _390
REMARK  156  A    between atoms: _390  and  _391
REMARK  157  A    between atoms: _390  and  _393
REMARK  158  A    between atoms: _393  and  _394
REMARK  159  A    between atoms: _396  and  _398
REMARK  160  A    between atoms: _398  and  _399
REMARK  161  A    between atoms: _398  and  _401
REMARK  162  A    between atoms: _401  and  _402
REMARK  163  A    between atoms: _405  and  _407
REMARK  164  A    between atoms: _407  and  _408
REMARK  165  A    between atoms: _407  and  _410
REMARK  166  A    between atoms: _410  and  _411
REMARK  167  A    between atoms: _411  and  _412
REMARK  168  A    between atoms: _412  and  _413
REMARK  169  A    between atoms: _422  and  _424
REMARK  170  A    between atoms: _424  and  _425
REMARK  171  A    between atoms: _424  and  _427
REMARK  172  A    between atoms: _427  and  _428
REMARK  173  A    between atoms: _433  and  _435
REMARK  174  A    between atoms: _435  and  _436
REMARK  175  A    between atoms: _435  and  _438
REMARK  176  A    between atoms: _438  and  _439
REMARK  177  A    between atoms: _442  and  _444
REMARK  178  A    between atoms: _444  and  _445
REMARK  179  A    between atoms: _444  and  _447
REMARK  180  A    between atoms: _447  and  _448
REMARK  181  A    between atoms: _453  and  _454
REMARK  182  A    between atoms: _456  and  _458
REMARK  183  A    between atoms: _458  and  _459
REMARK  184  A    between atoms: _458  and  _461
REMARK  185  A    between atoms: _461  and  _462
REMARK  186  A    between atoms: _465  and  _467
REMARK  187  A    between atoms: _467  and  _468
REMARK  188  A    between atoms: _467  and  _470
REMARK  189  A    between atoms: _470  and  _471
REMARK  190  A    between atoms: _471  and  _472
REMARK  191  A    between atoms: _477  and  _479
REMARK  192  A    between atoms: _479  and  _480
REMARK  193  A    between atoms: _479  and  _482
REMARK  194  A    between atoms: _482  and  _483
REMARK  195  A    between atoms: _483  and  _484
REMARK  196  A    between atoms: _484  and  _485
REMARK  197  A    between atoms: _494  and  _496
REMARK  198  A    between atoms: _496  and  _497
REMARK  199  A    between atoms: _496  and  _499
REMARK  200  A    between atoms: _499  and  _500
REMARK  201  A    between atoms: _505  and  _506
REMARK  202  A    between atoms: _508  and  _510
REMARK  203  A    between atoms: _510  and  _511
REMARK  204  A    between atoms: _513  and  _515
REMARK  205  A    between atoms: _515  and  _516
REMARK  206  A    between atoms: _515  and  _518
REMARK  207  A    between atoms: _518  and  _519
REMARK  208  A    between atoms: _524  and  _526
REMARK  209  A    between atoms: _526  and  _527
REMARK  210  A    between atoms: _526  and  _529
REMARK  211  A    between atoms: _529  and  _530
REMARK  212  A    between atoms: _530  and  _531
REMARK  213  A    between atoms: _536  and  _538
REMARK  214  A    between atoms: _538  and  _539
REMARK  215  A    between atoms: _538  and  _541
REMARK  216  A    between atoms: _541  and  _542
REMARK  217  A    between atoms: _548  and  _550
REMARK  218  A    between atoms: _550  and  _551
REMARK  219  A    between atoms: _554  and  _556
REMARK  220  A    between atoms: _556  and  _557
REMARK  221  A    between atoms: _556  and  _559
REMARK  222  A    between atoms: _559  and  _560
REMARK  223  A    between atoms: _565  and  _566
REMARK  224  A    between atoms: _568  and  _570
REMARK  225  A    between atoms: _570  and  _571
REMARK  226  A    between atoms: _570  and  _573
REMARK  227  A    between atoms: _573  and  _574
REMARK  228  A    between atoms: _579  and  _580
REMARK  229  A    between atoms: _582  and  _584
REMARK  230  A    between atoms: _584  and  _585
REMARK  231  A    between atoms: _584  and  _587
REMARK  232  A    between atoms: _587  and  _588
REMARK  233  A    between atoms: _591  and  _593
REMARK  234  A    between atoms: _593  and  _594
REMARK  235  A    between atoms: _593  and  _596
REMARK  236  A    between atoms: _596  and  _597
REMARK  237  A    between atoms: _607  and  _609
REMARK  238  A    between atoms: _609  and  _610
REMARK  239  A    between atoms: _613  and  _615
REMARK  240  A    between atoms: _615  and  _616
REMARK  241  A    between atoms: _619  and  _621
REMARK  242  A    between atoms: _621  and  _622
REMARK  243  A    between atoms: _621  and  _624
REMARK  244  A    between atoms: _624  and  _625
REMARK  245  A    between atoms: _625  and  _626
REMARK  246  A    between atoms: _631  and  _633
REMARK  247  A    between atoms: _633  and  _634
REMARK  248  A    between atoms: _633  and  _636
REMARK  249  A    between atoms: _636  and  _637
REMARK  250  A    between atoms: _640  and  _642
REMARK  251  A    between atoms: _642  and  _643
REMARK  252  A    between atoms: _642  and  _645
REMARK  253  A    between atoms: _645  and  _646
REMARK  254  A    between atoms: _649  and  _651
REMARK  255  A    between atoms: _651  and  _652
REMARK  256  A    between atoms: _651  and  _654
REMARK  257  A    between atoms: _654  and  _655
REMARK  258  A    between atoms: _655  and  _656
REMARK  259  A    between atoms: _661  and  _663
REMARK  260  A    between atoms: _663  and  _664
REMARK  261  A    between atoms: _663  and  _666
REMARK  262  A    between atoms: _666  and  _667
REMARK  263  A    between atoms: _667  and  _668
REMARK  264  A    between atoms: _668  and  _669
REMARK  265  A    between atoms: _678  and  _680
REMARK  266  A    between atoms: _680  and  _681
REMARK  267  A    between atoms: _680  and  _683
REMARK  268  A    between atoms: _683  and  _684
REMARK  269  A    between atoms: _684  and  _685
REMARK  270  A    between atoms: _685  and  _686
REMARK  271  A    between atoms: _686  and  _687
REMARK  272  A    between atoms: _691  and  _693
REMARK  273  A    between atoms: _693  and  _694
REMARK  274  A    between atoms: _693  and  _696
REMARK  275  A    between atoms: _696  and  _697
REMARK  276  A    between atoms: _707  and  _709
REMARK  277  A    between atoms: _709  and  _710
REMARK  278  A    between atoms: _713  and  _715
REMARK  279  A    between atoms: _715  and  _716
REMARK  280  A    between atoms: _719  and  _721
REMARK  281  A    between atoms: _721  and  _722
REMARK  282  A    between atoms: _721  and  _724
REMARK  283  A    between atoms: _724  and  _725
REMARK  284  A    between atoms: _725  and  _726
REMARK  285  A    between atoms: _726  and  _727
REMARK  286  A    between atoms: _736  and  _738
REMARK  287  A    between atoms: _738  and  _739
REMARK  288  A    between atoms: _738  and  _741
REMARK  289  A    between atoms: _744  and  _746
REMARK  290  A    between atoms: _746  and  _747
REMARK  291  A    between atoms: _750  and  _752
REMARK  292  A    between atoms: _752  and  _753
REMARK  293  A    between atoms: _752  and  _755
REMARK  294  A    between atoms: _755  and  _756
REMARK  295  A    between atoms: _756  and  _757
REMARK  296  A    between atoms: _760  and  _762
REMARK  297  A    between atoms: _762  and  _763
REMARK  298  A    between atoms: _762  and  _765
REMARK  299  A    between atoms: _765  and  _766
REMARK  300  A    between atoms: _766  and  _767
REMARK  301  A    between atoms: _772  and  _774
REMARK  302  A    between atoms: _774  and  _775
REMARK  303  A    between atoms: _774  and  _777
REMARK  304  A    between atoms: _777  and  _778
REMARK  305  A    between atoms: _781  and  _783
REMARK  306  A    between atoms: _783  and  _784
REMARK  307  A    between atoms: _783  and  _786
REMARK  308  A    between atoms: _786  and  _787
REMARK  309  A    between atoms: _787  and  _788
REMARK  310  A    between atoms: _788  and  _789
REMARK  311  A    between atoms: _798  and  _800
REMARK  312  A    between atoms: _800  and  _801
REMARK  313  A    between atoms: _800  and  _803
REMARK  314  A    between atoms: _803  and  _804
REMARK  315  A    between atoms: _807  and  _809
REMARK  316  A    between atoms: _809  and  _810
REMARK  317  A    between atoms: _809  and  _812
REMARK  318  A    between atoms: _812  and  _813
REMARK  319  A    between atoms: _818  and  _819
REMARK  320  A    between atoms: _821  and  _823
REMARK  321  A    between atoms: _823  and  _824
REMARK  322  A    between atoms: _823  and  _826
REMARK  323  A    between atoms: _826  and  _827
REMARK  324  A    between atoms: _830  and  _832
REMARK  325  A    between atoms: _832  and  _833
REMARK  326  A    between atoms: _832  and  _835
REMARK  327  A    between atoms: _835  and  _836
REMARK  328  A    between atoms: _839  and  _841
REMARK  329  A    between atoms: _841  and  _842
REMARK  330  A    between atoms: _841  and  _844
REMARK  331  A    between atoms: _846  and  _848
REMARK  332  A    between atoms: _848  and  _849
REMARK  333  A    between atoms: _848  and  _851
REMARK  334  A    between atoms: _854  and  _856
REMARK  335  A    between atoms: _856  and  _857
REMARK  336  A    between atoms: _856  and  _859
REMARK  337  A    between atoms: _859  and  _860
REMARK  338  A    between atoms: _860  and  _861
REMARK  339  A    between atoms: _864  and  _866
REMARK  340  A    between atoms: _866  and  _867
REMARK  341  A    between atoms: _866  and  _869
REMARK  342  A    between atoms: _869  and  _870
REMARK  343  A    between atoms: _880  and  _882
REMARK  344  A    between atoms: _882  and  _883
REMARK  345  A    between atoms: _882  and  _885
REMARK  346  A    between atoms: _885  and  _886
REMARK  347  A    between atoms: _889  and  _891
REMARK  348  A    between atoms: _891  and  _892
REMARK  349  A    between atoms: _891  and  _894
REMARK  350  A    between atoms: _894  and  _895
REMARK  351  A    between atoms: _900  and  _901
REMARK                            x       y       z     vdW  Elec       q    Type
REMARK                         _______ _______ _______ _____ _____    ______ ____
ROOT
ATOM      1  O   HOH     1     -11.564  15.804  38.539  0.00  0.00    +0.000 OA
ENDROOT
TORSDOF 0
REMARK  Name = ../refined-set-2016/4o2c/4o2c_pocket.pdb
REMARK  351 active torsions:
REMARK  status: ('A' for Active; 'I' for Inactive)
REMARK    1  A    between atoms: _1  and  _3
REMARK    2  A    between atoms: _3  and  _4
REMARK    3  A    between atoms: _3  and  _6
REMARK    4  A    between atoms: _6  and  _7
REMARK    5  A    between atoms: _7  and  _8
REMARK    6  A    between atoms: _10  and  _12
REMARK    7  A    between atoms: _12  and  _13
REMARK    8  A    between atoms: _12  and  _15
REMARK    9  A    between atoms: _15  and  _16
REMARK   10  A    between atoms: _16  and  _17
REMARK   11  A    between atoms: _17  and  _18
REMARK   12  A    between atoms: _27  and  _29
REMARK   13  A    between atoms: _29  and  _30
REMARK   14  A    between atoms: _29  and  _32
REMARK   15  A    between atoms: _32  and  _33
REMARK   16  A    between atoms: _38  and  _39
REMARK   17  A    between atoms: _41  and  _43
REMARK   18  A    between atoms: _43  and  _44
REMARK   19  A    between atoms: _43  and  _46
REMARK   20  A    between atoms: _46  and  _47
REMARK   21  A    between atoms: _53  and  _55
REMARK   22  A    between atoms: _55  and  _56
REMARK   23  A    between atoms: _55  and  _58
REMARK   24  A    between atoms: _58  and  _59
REMARK   25  A    between atoms: _64  and  _65
REMARK   26  A    between atoms: _67  and  _69
REMARK   27  A    between atoms: _69  and  _70
REMARK   28  A    between atoms: _69  and  _72
REMARK   29  A    between atoms: _72  and  _73
REMARK   30  A    between atoms: _79  and  _81
REMARK   31  A    between atoms: _81  and  _82
REMARK   32  A    between atoms: _81  and  _84
REMARK   33  A    between atoms: _84  and  _85
REMARK   34  A    between atoms: _88  and  _90
REMARK   35  A    between atoms: _90  and  _91
REMARK   36  A    between atoms: _90  and  _93
REMARK   37  A    between atoms: _93  and  _94
REMARK   38  A    between atoms: _96  and  _98
REMARK   39  A    between atoms: _98  and  _99
REMARK   40  A    between atoms: _98  and  _101
REMARK   41  A    between atoms: _104  and  _106
REMARK   42  A    between atoms: _106  and  _107
REMARK   43  A    between atoms: _109  and  _111
REMARK   44  A    between atoms: _111  and  _112
REMARK   45  A    between atoms: _111  and  _114
REMARK   46  A    between atoms: _114  and  _115
REMARK   47  A    between atoms: _121  and  _123
REMARK   48  A    between atoms: _123  and  _124
REMARK   49  A    between atoms: _123  and  _126
REMARK   50  A    between atoms: _129  and  _131
REMARK   51  A    between atoms: _131  and  _132
REMARK   52  A    between atoms: _131  and  _134
REMARK   53  A    between atoms: _134  and  _135
REMARK   54  A    between atoms: _135  and  _136
REMARK   55  A    between atoms: _136  and  _137
REMARK   56  A    between atoms: _146  and  _148
REMARK   57  A    between atoms: _148  and  _149
REMARK   58  A    between atoms: _148  and  _151
REMARK   59  A    between atoms: _151  and  _152
REMARK   60  A    between atoms: _158  and  _160
REMARK   61  A    between atoms: _160  and  _161
REMARK   62  A    between atoms: _160  and  _163
REMARK   63  A    between atoms: _163  and  _164
REMARK   64  A    between atoms: _164  and  _165
REMARK   65  A    between atoms: _168  and  _170
REMARK   66  A    between atoms: _170  and  _171
REMARK   67  A    between atoms: _170  and  _173
REMARK   68  A    between atoms: _173  and  _174
REMARK   69  A    between atoms: _174  and  _175
REMARK   70  A    between atoms: _178  and  _180
REMARK   71  A    between atoms: _180  and  _181
REMARK   72  A    between atoms: _180  and  _183
REMARK   73  A    between atoms: _183  and  _184
REMARK   74  A    between atoms: _187  and  _189
REMARK   75  A    between atoms: _189  and  _190
REMARK   76  A    between atoms: _189  and  _192
REMARK   77  A    between atoms: _192  and  _193
REMARK   78  A    between atoms: _193  and  _194
REMARK   79  A    between atoms: _197  and  _199
REMARK   80  A    between atoms: _199  and  _200
REMARK   81  A    between atoms: _199  and  _202
REMARK   82  A    between atoms: _202  and  _203
REMARK   83  A    between atoms: _203  and  _204
REMARK   84  A    between atoms: _207  and  _209
REMARK   85  A    between atoms: _209  and  _210
REMARK   86  A    between atoms: _209  and  _212
REMARK   87  A    between atoms: _212  and  _213
REMARK   88  A    between atoms: _218  and  _219
REMARK   89  A    between atoms: _221  and  _223
REMARK   90  A    between atoms: _223  and  _224
REMARK   91  A    between atoms: _223  and  _226
REMARK   92  A    between atoms: _226  and  _227
REMARK   93  A    between atoms: _237  and  _239
REMARK   94  A    between atoms: _239  and  _240
REMARK   95  A    between atoms: _239  and  _242
REMARK   96  A    between atoms: _242  and  _243
REMARK   97  A    between atoms: _246  and  _248
REMARK   98  A    between atoms: _248  and  _249
REMARK   99  A    between atoms: _248  and  _251
REMARK  100  A    between atoms: _251  and  _252
REMARK  101  A    between atoms: _252  and  _253
REMARK  102  A    between atoms: _253  and  _254
REMARK  103  A    between atoms: _263  and  _265
REMARK  104  A    between atoms: _265  and  _266
REMARK  105  A    between atoms: _265  and  _268
REMARK  106  A    between atoms: _268  and  _269
REMARK  107  A    between atoms: _274  and  _276
REMARK  108  A    between atoms: _276  and  _277
REMARK  109  A    between atoms: _276  and  _279
REMARK  110  A    between atoms: _279  and  _280
REMARK  111  A    between atoms: _283  and  _285
REMARK  112  A    between atoms: _285  and  _286
REMARK  113  A    between atoms: _285  and  _288
REMARK  114  A    between atoms: _288  and  _289
REMARK  115  A    between atoms: _289  and  _290
REMARK  116  A    between atoms: _295  and  _297
REMARK  117  A    between atoms: _297  and  _298
REMARK  118  A    between atoms: _297  and  _300
REMARK  119  A    between atoms: _300  and  _301
REMARK  120  A    between atoms: _304  and  _306
REMARK  121  A    between atoms: _306  and  _307
REMARK  122  A    between atoms: _306  and  _309
REMARK  123  A    between atoms: _311  and  _313
REMARK  124  A    between atoms: _313  and  _314
REMARK  125  A    between atoms: _313  and  _316
REMARK  126  A    between atoms: _316  and  _317
REMARK  127  A    between atoms: _320  and  _322
REMARK  128  A    between atoms: _322  and  _323
REMARK  129  A    between atoms: _322  and  _325
REMARK  130  A    between atoms: _325  and  _326
REMARK  131  A    between atoms: _331  and  _333
REMARK  132  A    between atoms: _333  and  _334
REMARK  133  A    between atoms: _333  and  _336
REMARK  134  A    between atoms: _336  and  _337
REMARK  135  A    between atoms: _337  and  _338
REMARK  136  A    between atoms: _343  and  _345
REMARK  137  A    between atoms: _345  and  _346
REMARK  138  A    between atoms: _345  and  _348
REMARK  139  A    between atoms: _348  and  _349
REMARK  140  A    between atoms: _352  and  _354
REMARK  141  A    between atoms: _354  and  _355
REMARK  142  A    between atoms: _354  and  _357
REMARK  143  A    between atoms: _357  and  _358
REMARK  144  A    between atoms: _361  and  _363
REMARK  145  A    between atoms: _363  and  _364
REMARK  146  A    between atoms: _363  and  _366
REMARK  147  A    between atoms: _366  and  _367
REMARK  148  A    between atoms: _367  and  _368
REMARK  149  A    between atoms: _368  and  _369
REMARK  150  A    between atoms: _378  and  _380
REMARK  151  A    between atoms: _380  and  _381
REMARK  152  A    between atoms: _380  and  _383
REMARK  153  A    between atoms: _383  and  _384
REMARK  154  A    between atoms: _384  and  _385
REMARK  155  A    between atoms: _388  and  _390
REMARK  156  A    between atoms: _390  and  _391
REMARK  157  A    between atoms: _390  and  _393
REMARK  158  A    between atoms: _393  and  _394
REMARK  159  A    between atoms: _396  and  _398
REMARK  160  A    between atoms: _398  and  _399
REMARK  161  A    between atoms: _398  and  _401
REMARK  162  A    between atoms: _401  and  _402
REMARK  163  A    between atoms: _405  and  _407
REMARK  164  A    between atoms: _407  and  _408
REMARK  165  A    between atoms: _407  and  _410
REMARK  166  A    between atoms: _410  and  _411
REMARK  167  A    between atoms: _411  and  _412
REMARK  168  A    between atoms: _412  and  _413
REMARK  169  A    between atoms: _422  and  _424
REMARK  170  A    between atoms: _424  and  _425
REMARK  171  A    between atoms: _424  and  _427
REMARK  172  A    between atoms: _427  and  _428
REMARK  173  A    between atoms: _433  and  _435
REMARK  174  A    between atoms: _435  and  _436
REMARK  175  A    between atoms: _435  and  _438
REMARK  176  A    between atoms: _438  and  _439
REMARK  177  A    between atoms: _442  and  _444
REMARK  178  A    between atoms: _444  and  _445
REMARK  179  A    between atoms: _444  and  _447
REMARK  180  A    between atoms: _447  and  _448
REMARK  181  A    between atoms: _453  and  _454
REMARK  182  A    between atoms: _456  and  _458
REMARK  183  A    between atoms: _458  and  _459
REMARK  184  A    between atoms: _458  and  _461
REMARK  185  A    between atoms: _461  and  _462
REMARK  186  A    between atoms: _465  and  _467
REMARK  187  A    between atoms: _467  and  _468
REMARK  188  A    between atoms: _467  and  _470
REMARK  189  A    between atoms: _470  and  _471
REMARK  190  A    between atoms: _471  and  _472
REMARK  191  A    between atoms: _477  and  _479
REMARK  192  A    between atoms: _479  and  _480
REMARK  193  A    between atoms: _479  and  _482
REMARK  194  A    between atoms: _482  and  _483
REMARK  195  A    between atoms: _483  and  _484
REMARK  196  A    between atoms: _484  and  _485
REMARK  197  A    between atoms: _494  and  _496
REMARK  198  A    between atoms: _496  and  _497
REMARK  199  A    between atoms: _496  and  _499
REMARK  200  A    between atoms: _499  and  _500
REMARK  201  A    between atoms: _505  and  _506
REMARK  202  A    between atoms: _508  and  _510
REMARK  203  A    between atoms: _510  and  _511
REMARK  204  A    between atoms: _513  and  _515
REMARK  205  A    between atoms: _515  and  _516
REMARK  206  A    between atoms: _515  and  _518
REMARK  207  A    between atoms: _518  and  _519
REMARK  208  A    between atoms: _524  and  _526
REMARK  209  A    between atoms: _526  and  _527
REMARK  210  A    between atoms: _526  and  _529
REMARK  211  A    between atoms: _529  and  _530
REMARK  212  A    between atoms: _530  and  _531
REMARK  213  A    between atoms: _536  and  _538
REMARK  214  A    between atoms: _538  and  _539
REMARK  215  A    between atoms: _538  and  _541
REMARK  216  A    between atoms: _541  and  _542
REMARK  217  A    between atoms: _548  and  _550
REMARK  218  A    between atoms: _550  and  _551
REMARK  219  A    between atoms: _554  and  _556
REMARK  220  A    between atoms: _556  and  _557
REMARK  221  A    between atoms: _556  and  _559
REMARK  222  A    between atoms: _559  and  _560
REMARK  223  A    between atoms: _565  and  _566
REMARK  224  A    between atoms: _568  and  _570
REMARK  225  A    between atoms: _570  and  _571
REMARK  226  A    between atoms: _570  and  _573
REMARK  227  A    between atoms: _573  and  _574
REMARK  228  A    between atoms: _579  and  _580
REMARK  229  A    between atoms: _582  and  _584
REMARK  230  A    between atoms: _584  and  _585
REMARK  231  A    between atoms: _584  and  _587
REMARK  232  A    between atoms: _587  and  _588
REMARK  233  A    between atoms: _591  and  _593
REMARK  234  A    between atoms: _593  and  _594
REMARK  235  A    between atoms: _593  and  _596
REMARK  236  A    between atoms: _596  and  _597
REMARK  237  A    between atoms: _607  and  _609
REMARK  238  A    between atoms: _609  and  _610
REMARK  239  A    between atoms: _613  and  _615
REMARK  240  A    between atoms: _615  and  _616
REMARK  241  A    between atoms: _619  and  _621
REMARK  242  A    between atoms: _621  and  _622
REMARK  243  A    between atoms: _621  and  _624
REMARK  244  A    between atoms: _624  and  _625
REMARK  245  A    between atoms: _625  and  _626
REMARK  246  A    between atoms: _631  and  _633
REMARK  247  A    between atoms: _633  and  _634
REMARK  248  A    between atoms: _633  and  _636
REMARK  249  A    between atoms: _636  and  _637
REMARK  250  A    between atoms: _640  and  _642
REMARK  251  A    between atoms: _642  and  _643
REMARK  252  A    between atoms: _642  and  _645
REMARK  253  A    between atoms: _645  and  _646
REMARK  254  A    between atoms: _649  and  _651
REMARK  255  A    between atoms: _651  and  _652
REMARK  256  A    between atoms: _651  and  _654
REMARK  257  A    between atoms: _654  and  _655
REMARK  258  A    between atoms: _655  and  _656
REMARK  259  A    between atoms: _661  and  _663
REMARK  260  A    between atoms: _663  and  _664
REMARK  261  A    between atoms: _663  and  _666
REMARK  262  A    between atoms: _666  and  _667
REMARK  263  A    between atoms: _667  and  _668
REMARK  264  A    between atoms: _668  and  _669
REMARK  265  A    between atoms: _678  and  _680
REMARK  266  A    between atoms: _680  and  _681
REMARK  267  A    between atoms: _680  and  _683
REMARK  268  A    between atoms: _683  and  _684
REMARK  269  A    between atoms: _684  and  _685
REMARK  270  A    between atoms: _685  and  _686
REMARK  271  A    between atoms: _686  and  _687
REMARK  272  A    between atoms: _691  and  _693
REMARK  273  A    between atoms: _693  and  _694
REMARK  274  A    between atoms: _693  and  _696
REMARK  275  A    between atoms: _696  and  _697
REMARK  276  A    between atoms: _707  and  _709
REMARK  277  A    between atoms: _709  and  _710
REMARK  278  A    between atoms: _713  and  _715
REMARK  279  A    between atoms: _715  and  _716
REMARK  280  A    between atoms: _719  and  _721
REMARK  281  A    between atoms: _721  and  _722
REMARK  282  A    between atoms: _721  and  _724
REMARK  283  A    between atoms: _724  and  _725
REMARK  284  A    between atoms: _725  and  _726
REMARK  285  A    between atoms: _726  and  _727
REMARK  286  A    between atoms: _736  and  _738
REMARK  287  A    between atoms: _738  and  _739
REMARK  288  A    between atoms: _738  and  _741
REMARK  289  A    between atoms: _744  and  _746
REMARK  290  A    between atoms: _746  and  _747
REMARK  291  A    between atoms: _750  and  _752
REMARK  292  A    between atoms: _752  and  _753
REMARK  293  A    between atoms: _752  and  _755
REMARK  294  A    between atoms: _755  and  _756
REMARK  295  A    between atoms: _756  and  _757
REMARK  296  A    between atoms: _760  and  _762
REMARK  297  A    between atoms: _762  and  _763
REMARK  298  A    between atoms: _762  and  _765
REMARK  299  A    between atoms: _765  and  _766
REMARK  300  A    between atoms: _766  and  _767
REMARK  301  A    between atoms: _772  and  _774
REMARK  302  A    between atoms: _774  and  _775
REMARK  303  A    between atoms: _774  and  _777
REMARK  304  A    between atoms: _777  and  _778
REMARK  305  A    between atoms: _781  and  _783
REMARK  306  A    between atoms: _783  and  _784
REMARK  307  A    between atoms: _783  and  _786
REMARK  308  A    between atoms: _786  and  _787
REMARK  309  A    between atoms: _787  and  _788
REMARK  310  A    between atoms: _788  and  _789
REMARK  311  A    between atoms: _798  and  _800
REMARK  312  A    between atoms: _800  and  _801
REMARK  313  A    between atoms: _800  and  _803
REMARK  314  A    between atoms: _803  and  _804
REMARK  315  A    between atoms: _807  and  _809
REMARK  316  A    between atoms: _809  and  _810
REMARK  317  A    between atoms: _809  and  _812
REMARK  318  A    between atoms: _812  and  _813
REMARK  319  A    between atoms: _818  and  _819
REMARK  320  A    between atoms: _821  and  _823
REMARK  321  A    between atoms: _823  and  _824
REMARK  322  A    between atoms: _823  and  _826
REMARK  323  A    between atoms: _826  and  _827
REMARK  324  A    between atoms: _830  and  _832
REMARK  325  A    between atoms: _832  and  _833
REMARK  326  A    between atoms: _832  and  _835
REMARK  327  A    between atoms: _835  and  _836
REMARK  328  A    between atoms: _839  and  _841
REMARK  329  A    between atoms: _841  and  _842
REMARK  330  A    between atoms: _841  and  _844
REMARK  331  A    between atoms: _846  and  _848
REMARK  332  A    between atoms: _848  and  _849
REMARK  333  A    between atoms: _848  and  _851
REMARK  334  A    between atoms: _854  and  _856
REMARK  335  A    between atoms: _856  and  _857
REMARK  336  A    between atoms: _856  and  _859
REMARK  337  A    between atoms: _859  and  _860
REMARK  338  A    between atoms: _860  and  _861
REMARK  339  A    between atoms: _864  and  _866
REMARK  340  A    between atoms: _866  and  _867
REMARK  341  A    between atoms: _866  and  _869
REMARK  342  A    between atoms: _869  and  _870
REMARK  343  A    between atoms: _880  and  _882
REMARK  344  A    between atoms: _882  and  _883
REMARK  345  A    between atoms: _882  and  _885
REMARK  346  A    between atoms: _885  and  _886
REMARK  347  A    between atoms: _889  and  _891
REMARK  348  A    between atoms: _891  and  _892
REMARK  349  A    between atoms: _891  and  _894
REMARK  350  A    between atoms: _894  and  _895
REMARK  351  A    between atoms: _900  and  _901
REMARK                            x       y       z     vdW  Elec       q    Type
REMARK                         _______ _______ _______ _____ _____    ______ ____
ROOT
ATOM      1  O   HOH     1      11.651  15.700  43.349  0.00  0.00    +0.000 OA
ENDROOT
TORSDOF 0
REMARK  Name = ../refined-set-2016/4o2c/4o2c_pocket.pdb
REMARK  351 active torsions:
REMARK  status: ('A' for Active; 'I' for Inactive)
REMARK    1  A    between atoms: _1  and  _3
REMARK    2  A    between atoms: _3  and  _4
REMARK    3  A    between atoms: _3  and  _6
REMARK    4  A    between atoms: _6  and  _7
REMARK    5  A    between atoms: _7  and  _8
REMARK    6  A    between atoms: _10  and  _12
REMARK    7  A    between atoms: _12  and  _13
REMARK    8  A    between atoms: _12  and  _15
REMARK    9  A    between atoms: _15  and  _16
REMARK   10  A    between atoms: _16  and  _17
REMARK   11  A    between atoms: _17  and  _18
REMARK   12  A    between atoms: _27  and  _29
REMARK   13  A    between atoms: _29  and  _30
REMARK   14  A    between atoms: _29  and  _32
REMARK   15  A    between atoms: _32  and  _33
REMARK   16  A    between atoms: _38  and  _39
REMARK   17  A    between atoms: _41  and  _43
REMARK   18  A    between atoms: _43  and  _44
REMARK   19  A    between atoms: _43  and  _46
REMARK   20  A    between atoms: _46  and  _47
REMARK   21  A    between atoms: _53  and  _55
REMARK   22  A    between atoms: _55  and  _56
REMARK   23  A    between atoms: _55  and  _58
REMARK   24  A    between atoms: _58  and  _59
REMARK   25  A    between atoms: _64  and  _65
REMARK   26  A    between atoms: _67  and  _69
REMARK   27  A    between atoms: _69  and  _70
REMARK   28  A    between atoms: _69  and  _72
REMARK   29  A    between atoms: _72  and  _73
REMARK   30  A    between atoms: _79  and  _81
REMARK   31  A    between atoms: _81  and  _82
REMARK   32  A    between atoms: _81  and  _84
REMARK   33  A    between atoms: _84  and  _85
REMARK   34  A    between atoms: _88  and  _90
REMARK   35  A    between atoms: _90  and  _91
REMARK   36  A    between atoms: _90  and  _93
REMARK   37  A    between atoms: _93  and  _94
REMARK   38  A    between atoms: _96  and  _98
REMARK   39  A    between atoms: _98  and  _99
REMARK   40  A    between atoms: _98  and  _101
REMARK   41  A    between atoms: _104  and  _106
REMARK   42  A    between atoms: _106  and  _107
REMARK   43  A    between atoms: _109  and  _111
REMARK   44  A    between atoms: _111  and  _112
REMARK   45  A    between atoms: _111  and  _114
REMARK   46  A    between atoms: _114  and  _115
REMARK   47  A    between atoms: _121  and  _123
REMARK   48  A    between atoms: _123  and  _124
REMARK   49  A    between atoms: _123  and  _126
REMARK   50  A    between atoms: _129  and  _131
REMARK   51  A    between atoms: _131  and  _132
REMARK   52  A    between atoms: _131  and  _134
REMARK   53  A    between atoms: _134  and  _135
REMARK   54  A    between atoms: _135  and  _136
REMARK   55  A    between atoms: _136  and  _137
REMARK   56  A    between atoms: _146  and  _148
REMARK   57  A    between atoms: _148  and  _149
REMARK   58  A    between atoms: _148  and  _151
REMARK   59  A    between atoms: _151  and  _152
REMARK   60  A    between atoms: _158  and  _160
REMARK   61  A    between atoms: _160  and  _161
REMARK   62  A    between atoms: _160  and  _163
REMARK   63  A    between atoms: _163  and  _164
REMARK   64  A    between atoms: _164  and  _165
REMARK   65  A    between atoms: _168  and  _170
REMARK   66  A    between atoms: _170  and  _171
REMARK   67  A    between atoms: _170  and  _173
REMARK   68  A    between atoms: _173  and  _174
REMARK   69  A    between atoms: _174  and  _175
REMARK   70  A    between atoms: _178  and  _180
REMARK   71  A    between atoms: _180  and  _181
REMARK   72  A    between atoms: _180  and  _183
REMARK   73  A    between atoms: _183  and  _184
REMARK   74  A    between atoms: _187  and  _189
REMARK   75  A    between atoms: _189  and  _190
REMARK   76  A    between atoms: _189  and  _192
REMARK   77  A    between atoms: _192  and  _193
REMARK   78  A    between atoms: _193  and  _194
REMARK   79  A    between atoms: _197  and  _199
REMARK   80  A    between atoms: _199  and  _200
REMARK   81  A    between atoms: _199  and  _202
REMARK   82  A    between atoms: _202  and  _203
REMARK   83  A    between atoms: _203  and  _204
REMARK   84  A    between atoms: _207  and  _209
REMARK   85  A    between atoms: _209  and  _210
REMARK   86  A    between atoms: _209  and  _212
REMARK   87  A    between atoms: _212  and  _213
REMARK   88  A    between atoms: _218  and  _219
REMARK   89  A    between atoms: _221  and  _223
REMARK   90  A    between atoms: _223  and  _224
REMARK   91  A    between atoms: _223  and  _226
REMARK   92  A    between atoms: _226  and  _227
REMARK   93  A    between atoms: _237  and  _239
REMARK   94  A    between atoms: _239  and  _240
REMARK   95  A    between atoms: _239  and  _242
REMARK   96  A    between atoms: _242  and  _243
REMARK   97  A    between atoms: _246  and  _248
REMARK   98  A    between atoms: _248  and  _249
REMARK   99  A    between atoms: _248  and  _251
REMARK  100  A    between atoms: _251  and  _252
REMARK  101  A    between atoms: _252  and  _253
REMARK  102  A    between atoms: _253  and  _254
REMARK  103  A    between atoms: _263  and  _265
REMARK  104  A    between atoms: _265  and  _266
REMARK  105  A    between atoms: _265  and  _268
REMARK  106  A    between atoms: _268  and  _269
REMARK  107  A    between atoms: _274  and  _276
REMARK  108  A    between atoms: _276  and  _277
REMARK  109  A    between atoms: _276  and  _279
REMARK  110  A    between atoms: _279  and  _280
REMARK  111  A    between atoms: _283  and  _285
REMARK  112  A    between atoms: _285  and  _286
REMARK  113  A    between atoms: _285  and  _288
REMARK  114  A    between atoms: _288  and  _289
REMARK  115  A    between atoms: _289  and  _290
REMARK  116  A    between atoms: _295  and  _297
REMARK  117  A    between atoms: _297  and  _298
REMARK  118  A    between atoms: _297  and  _300
REMARK  119  A    between atoms: _300  and  _301
REMARK  120  A    between atoms: _304  and  _306
REMARK  121  A    between atoms: _306  and  _307
REMARK  122  A    between atoms: _306  and  _309
REMARK  123  A    between atoms: _311  and  _313
REMARK  124  A    between atoms: _313  and  _314
REMARK  125  A    between atoms: _313  and  _316
REMARK  126  A    between atoms: _316  and  _317
REMARK  127  A    between atoms: _320  and  _322
REMARK  128  A    between atoms: _322  and  _323
REMARK  129  A    between atoms: _322  and  _325
REMARK  130  A    between atoms: _325  and  _326
REMARK  131  A    between atoms: _331  and  _333
REMARK  132  A    between atoms: _333  and  _334
REMARK  133  A    between atoms: _333  and  _336
REMARK  134  A    between atoms: _336  and  _337
REMARK  135  A    between atoms: _337  and  _338
REMARK  136  A    between atoms: _343  and  _345
REMARK  137  A    between atoms: _345  and  _346
REMARK  138  A    between atoms: _345  and  _348
REMARK  139  A    between atoms: _348  and  _349
REMARK  140  A    between atoms: _352  and  _354
REMARK  141  A    between atoms: _354  and  _355
REMARK  142  A    between atoms: _354  and  _357
REMARK  143  A    between atoms: _357  and  _358
REMARK  144  A    between atoms: _361  and  _363
REMARK  145  A    between atoms: _363  and  _364
REMARK  146  A    between atoms: _363  and  _366
REMARK  147  A    between atoms: _366  and  _367
REMARK  148  A    between atoms: _367  and  _368
REMARK  149  A    between atoms: _368  and  _369
REMARK  150  A    between atoms: _378  and  _380
REMARK  151  A    between atoms: _380  and  _381
REMARK  152  A    between atoms: _380  and  _383
REMARK  153  A    between atoms: _383  and  _384
REMARK  154  A    between atoms: _384  and  _385
REMARK  155  A    between atoms: _388  and  _390
REMARK  156  A    between atoms: _390  and  _391
REMARK  157  A    between atoms: _390  and  _393
REMARK  158  A    between atoms: _393  and  _394
REMARK  159  A    between atoms: _396  and  _398
REMARK  160  A    between atoms: _398  and  _399
REMARK  161  A    between atoms: _398  and  _401
REMARK  162  A    between atoms: _401  and  _402
REMARK  163  A    between atoms: _405  and  _407
REMARK  164  A    between atoms: _407  and  _408
REMARK  165  A    between atoms: _407  and  _410
REMARK  166  A    between atoms: _410  and  _411
REMARK  167  A    between atoms: _411  and  _412
REMARK  168  A    between atoms: _412  and  _413
REMARK  169  A    between atoms: _422  and  _424
REMARK  170  A    between atoms: _424  and  _425
REMARK  171  A    between atoms: _424  and  _427
REMARK  172  A    between atoms: _427  and  _428
REMARK  173  A    between atoms: _433  and  _435
REMARK  174  A    between atoms: _435  and  _436
REMARK  175  A    between atoms: _435  and  _438
REMARK  176  A    between atoms: _438  and  _439
REMARK  177  A    between atoms: _442  and  _444
REMARK  178  A    between atoms: _444  and  _445
REMARK  179  A    between atoms: _444  and  _447
REMARK  180  A    between atoms: _447  and  _448
REMARK  181  A    between atoms: _453  and  _454
REMARK  182  A    between atoms: _456  and  _458
REMARK  183  A    between atoms: _458  and  _459
REMARK  184  A    between atoms: _458  and  _461
REMARK  185  A    between atoms: _461  and  _462
REMARK  186  A    between atoms: _465  and  _467
REMARK  187  A    between atoms: _467  and  _468
REMARK  188  A    between atoms: _467  and  _470
REMARK  189  A    between atoms: _470  and  _471
REMARK  190  A    between atoms: _471  and  _472
REMARK  191  A    between atoms: _477  and  _479
REMARK  192  A    between atoms: _479  and  _480
REMARK  193  A    between atoms: _479  and  _482
REMARK  194  A    between atoms: _482  and  _483
REMARK  195  A    between atoms: _483  and  _484
REMARK  196  A    between atoms: _484  and  _485
REMARK  197  A    between atoms: _494  and  _496
REMARK  198  A    between atoms: _496  and  _497
REMARK  199  A    between atoms: _496  and  _499
REMARK  200  A    between atoms: _499  and  _500
REMARK  201  A    between atoms: _505  and  _506
REMARK  202  A    between atoms: _508  and  _510
REMARK  203  A    between atoms: _510  and  _511
REMARK  204  A    between atoms: _513  and  _515
REMARK  205  A    between atoms: _515  and  _516
REMARK  206  A    between atoms: _515  and  _518
REMARK  207  A    between atoms: _518  and  _519
REMARK  208  A    between atoms: _524  and  _526
REMARK  209  A    between atoms: _526  and  _527
REMARK  210  A    between atoms: _526  and  _529
REMARK  211  A    between atoms: _529  and  _530
REMARK  212  A    between atoms: _530  and  _531
REMARK  213  A    between atoms: _536  and  _538
REMARK  214  A    between atoms: _538  and  _539
REMARK  215  A    between atoms: _538  and  _541
REMARK  216  A    between atoms: _541  and  _542
REMARK  217  A    between atoms: _548  and  _550
REMARK  218  A    between atoms: _550  and  _551
REMARK  219  A    between atoms: _554  and  _556
REMARK  220  A    between atoms: _556  and  _557
REMARK  221  A    between atoms: _556  and  _559
REMARK  222  A    between atoms: _559  and  _560
REMARK  223  A    between atoms: _565  and  _566
REMARK  224  A    between atoms: _568  and  _570
REMARK  225  A    between atoms: _570  and  _571
REMARK  226  A    between atoms: _570  and  _573
REMARK  227  A    between atoms: _573  and  _574
REMARK  228  A    between atoms: _579  and  _580
REMARK  229  A    between atoms: _582  and  _584
REMARK  230  A    between atoms: _584  and  _585
REMARK  231  A    between atoms: _584  and  _587
REMARK  232  A    between atoms: _587  and  _588
REMARK  233  A    between atoms: _591  and  _593
REMARK  234  A    between atoms: _593  and  _594
REMARK  235  A    between atoms: _593  and  _596
REMARK  236  A    between atoms: _596  and  _597
REMARK  237  A    between atoms: _607  and  _609
REMARK  238  A    between atoms: _609  and  _610
REMARK  239  A    between atoms: _613  and  _615
REMARK  240  A    between atoms: _615  and  _616
REMARK  241  A    between atoms: _619  and  _621
REMARK  242  A    between atoms: _621  and  _622
REMARK  243  A    between atoms: _621  and  _624
REMARK  244  A    between atoms: _624  and  _625
REMARK  245  A    between atoms: _625  and  _626
REMARK  246  A    between atoms: _631  and  _633
REMARK  247  A    between atoms: _633  and  _634
REMARK  248  A    between atoms: _633  and  _636
REMARK  249  A    between atoms: _636  and  _637
REMARK  250  A    between atoms: _640  and  _642
REMARK  251  A    between atoms: _642  and  _643
REMARK  252  A    between atoms: _642  and  _645
REMARK  253  A    between atoms: _645  and  _646
REMARK  254  A    between atoms: _649  and  _651
REMARK  255  A    between atoms: _651  and  _652
REMARK  256  A    between atoms: _651  and  _654
REMARK  257  A    between atoms: _654  and  _655
REMARK  258  A    between atoms: _655  and  _656
REMARK  259  A    between atoms: _661  and  _663
REMARK  260  A    between atoms: _663  and  _664
REMARK  261  A    between atoms: _663  and  _666
REMARK  262  A    between atoms: _666  and  _667
REMARK  263  A    between atoms: _667  and  _668
REMARK  264  A    between atoms: _668  and  _669
REMARK  265  A    between atoms: _678  and  _680
REMARK  266  A    between atoms: _680  and  _681
REMARK  267  A    between atoms: _680  and  _683
REMARK  268  A    between atoms: _683  and  _684
REMARK  269  A    between atoms: _684  and  _685
REMARK  270  A    between atoms: _685  and  _686
REMARK  271  A    between atoms: _686  and  _687
REMARK  272  A    between atoms: _691  and  _693
REMARK  273  A    between atoms: _693  and  _694
REMARK  274  A    between atoms: _693  and  _696
REMARK  275  A    between atoms: _696  and  _697
REMARK  276  A    between atoms: _707  and  _709
REMARK  277  A    between atoms: _709  and  _710
REMARK  278  A    between atoms: _713  and  _715
REMARK  279  A    between atoms: _715  and  _716
REMARK  280  A    between atoms: _719  and  _721
REMARK  281  A    between atoms: _721  and  _722
REMARK  282  A    between atoms: _721  and  _724
REMARK  283  A    between atoms: _724  and  _725
REMARK  284  A    between atoms: _725  and  _726
REMARK  285  A    between atoms: _726  and  _727
REMARK  286  A    between atoms: _736  and  _738
REMARK  287  A    between atoms: _738  and  _739
REMARK  288  A    between atoms: _738  and  _741
REMARK  289  A    between atoms: _744  and  _746
REMARK  290  A    between atoms: _746  and  _747
REMARK  291  A    between atoms: _750  and  _752
REMARK  292  A    between atoms: _752  and  _753
REMARK  293  A    between atoms: _752  and  _755
REMARK  294  A    between atoms: _755  and  _756
REMARK  295  A    between atoms: _756  and  _757
REMARK  296  A    between atoms: _760  and  _762
REMARK  297  A    between atoms: _762  and  _763
REMARK  298  A    between atoms: _762  and  _765
REMARK  299  A    between atoms: _765  and  _766
REMARK  300  A    between atoms: _766  and  _767
REMARK  301  A    between atoms: _772  and  _774
REMARK  302  A    between atoms: _774  and  _775
REMARK  303  A    between atoms: _774  and  _777
REMARK  304  A    between atoms: _777  and  _778
REMARK  305  A    between atoms: _781  and  _783
REMARK  306  A    between atoms: _783  and  _784
REMARK  307  A    between atoms: _783  and  _786
REMARK  308  A    between atoms: _786  and  _787
REMARK  309  A    between atoms: _787  and  _788
REMARK  310  A    between atoms: _788  and  _789
REMARK  311  A    between atoms: _798  and  _800
REMARK  312  A    between atoms: _800  and  _801
REMARK  313  A    between atoms: _800  and  _803
REMARK  314  A    between atoms: _803  and  _804
REMARK  315  A    between atoms: _807  and  _809
REMARK  316  A    between atoms: _809  and  _810
REMARK  317  A    between atoms: _809  and  _812
REMARK  318  A    between atoms: _812  and  _813
REMARK  319  A    between atoms: _818  and  _819
REMARK  320  A    between atoms: _821  and  _823
REMARK  321  A    between atoms: _823  and  _824
REMARK  322  A    between atoms: _823  and  _826
REMARK  323  A    between atoms: _826  and  _827
REMARK  324  A    between atoms: _830  and  _832
REMARK  325  A    between atoms: _832  and  _833
REMARK  326  A    between atoms: _832  and  _835
REMARK  327  A    between atoms: _835  and  _836
REMARK  328  A    between atoms: _839  and  _841
REMARK  329  A    between atoms: _841  and  _842
REMARK  330  A    between atoms: _841  and  _844
REMARK  331  A    between atoms: _846  and  _848
REMARK  332  A    between atoms: _848  and  _849
REMARK  333  A    between atoms: _848  and  _851
REMARK  334  A    between atoms: _854  and  _856
REMARK  335  A    between atoms: _856  and  _857
REMARK  336  A    between atoms: _856  and  _859
REMARK  337  A    between atoms: _859  and  _860
REMARK  338  A    between atoms: _860  and  _861
REMARK  339  A    between atoms: _864  and  _866
REMARK  340  A    between atoms: _866  and  _867
REMARK  341  A    between atoms: _866  and  _869
REMARK  342  A    between atoms: _869  and  _870
REMARK  343  A    between atoms: _880  and  _882
REMARK  344  A    between atoms: _882  and  _883
REMARK  345  A    between atoms: _882  and  _885
REMARK  346  A    between atoms: _885  and  _886
REMARK  347  A    between atoms: _889  and  _891
REMARK  348  A    between atoms: _891  and  _892
REMARK  349  A    between atoms: _891  and  _894
REMARK  350  A    between atoms: _894  and  _895
REMARK  351  A    between atoms: _900  and  _901
REMARK                            x       y       z     vdW  Elec       q    Type
REMARK                         _______ _______ _______ _____ _____    ______ ____
ROOT
ATOM      1  O   HOH     1       4.332  16.809  40.474  0.00  0.00    +0.000 OA
ENDROOT
TORSDOF 0
REMARK  Name = ../refined-set-2016/4o2c/4o2c_pocket.pdb
REMARK  351 active torsions:
REMARK  status: ('A' for Active; 'I' for Inactive)
REMARK    1  A    between atoms: _1  and  _3
REMARK    2  A    between atoms: _3  and  _4
REMARK    3  A    between atoms: _3  and  _6
REMARK    4  A    between atoms: _6  and  _7
REMARK    5  A    between atoms: _7  and  _8
REMARK    6  A    between atoms: _10  and  _12
REMARK    7  A    between atoms: _12  and  _13
REMARK    8  A    between atoms: _12  and  _15
REMARK    9  A    between atoms: _15  and  _16
REMARK   10  A    between atoms: _16  and  _17
REMARK   11  A    between atoms: _17  and  _18
REMARK   12  A    between atoms: _27  and  _29
REMARK   13  A    between atoms: _29  and  _30
REMARK   14  A    between atoms: _29  and  _32
REMARK   15  A    between atoms: _32  and  _33
REMARK   16  A    between atoms: _38  and  _39
REMARK   17  A    between atoms: _41  and  _43
REMARK   18  A    between atoms: _43  and  _44
REMARK   19  A    between atoms: _43  and  _46
REMARK   20  A    between atoms: _46  and  _47
REMARK   21  A    between atoms: _53  and  _55
REMARK   22  A    between atoms: _55  and  _56
REMARK   23  A    between atoms: _55  and  _58
REMARK   24  A    between atoms: _58  and  _59
REMARK   25  A    between atoms: _64  and  _65
REMARK   26  A    between atoms: _67  and  _69
REMARK   27  A    between atoms: _69  and  _70
REMARK   28  A    between atoms: _69  and  _72
REMARK   29  A    between atoms: _72  and  _73
REMARK   30  A    between atoms: _79  and  _81
REMARK   31  A    between atoms: _81  and  _82
REMARK   32  A    between atoms: _81  and  _84
REMARK   33  A    between atoms: _84  and  _85
REMARK   34  A    between atoms: _88  and  _90
REMARK   35  A    between atoms: _90  and  _91
REMARK   36  A    between atoms: _90  and  _93
REMARK   37  A    between atoms: _93  and  _94
REMARK   38  A    between atoms: _96  and  _98
REMARK   39  A    between atoms: _98  and  _99
REMARK   40  A    between atoms: _98  and  _101
REMARK   41  A    between atoms: _104  and  _106
REMARK   42  A    between atoms: _106  and  _107
REMARK   43  A    between atoms: _109  and  _111
REMARK   44  A    between atoms: _111  and  _112
REMARK   45  A    between atoms: _111  and  _114
REMARK   46  A    between atoms: _114  and  _115
REMARK   47  A    between atoms: _121  and  _123
REMARK   48  A    between atoms: _123  and  _124
REMARK   49  A    between atoms: _123  and  _126
REMARK   50  A    between atoms: _129  and  _131
REMARK   51  A    between atoms: _131  and  _132
REMARK   52  A    between atoms: _131  and  _134
REMARK   53  A    between atoms: _134  and  _135
REMARK   54  A    between atoms: _135  and  _136
REMARK   55  A    between atoms: _136  and  _137
REMARK   56  A    between atoms: _146  and  _148
REMARK   57  A    between atoms: _148  and  _149
REMARK   58  A    between atoms: _148  and  _151
REMARK   59  A    between atoms: _151  and  _152
REMARK   60  A    between atoms: _158  and  _160
REMARK   61  A    between atoms: _160  and  _161
REMARK   62  A    between atoms: _160  and  _163
REMARK   63  A    between atoms: _163  and  _164
REMARK   64  A    between atoms: _164  and  _165
REMARK   65  A    between atoms: _168  and  _170
REMARK   66  A    between atoms: _170  and  _171
REMARK   67  A    between atoms: _170  and  _173
REMARK   68  A    between atoms: _173  and  _174
REMARK   69  A    between atoms: _174  and  _175
REMARK   70  A    between atoms: _178  and  _180
REMARK   71  A    between atoms: _180  and  _181
REMARK   72  A    between atoms: _180  and  _183
REMARK   73  A    between atoms: _183  and  _184
REMARK   74  A    between atoms: _187  and  _189
REMARK   75  A    between atoms: _189  and  _190
REMARK   76  A    between atoms: _189  and  _192
REMARK   77  A    between atoms: _192  and  _193
REMARK   78  A    between atoms: _193  and  _194
REMARK   79  A    between atoms: _197  and  _199
REMARK   80  A    between atoms: _199  and  _200
REMARK   81  A    between atoms: _199  and  _202
REMARK   82  A    between atoms: _202  and  _203
REMARK   83  A    between atoms: _203  and  _204
REMARK   84  A    between atoms: _207  and  _209
REMARK   85  A    between atoms: _209  and  _210
REMARK   86  A    between atoms: _209  and  _212
REMARK   87  A    between atoms: _212  and  _213
REMARK   88  A    between atoms: _218  and  _219
REMARK   89  A    between atoms: _221  and  _223
REMARK   90  A    between atoms: _223  and  _224
REMARK   91  A    between atoms: _223  and  _226
REMARK   92  A    between atoms: _226  and  _227
REMARK   93  A    between atoms: _237  and  _239
REMARK   94  A    between atoms: _239  and  _240
REMARK   95  A    between atoms: _239  and  _242
REMARK   96  A    between atoms: _242  and  _243
REMARK   97  A    between atoms: _246  and  _248
REMARK   98  A    between atoms: _248  and  _249
REMARK   99  A    between atoms: _248  and  _251
REMARK  100  A    between atoms: _251  and  _252
REMARK  101  A    between atoms: _252  and  _253
REMARK  102  A    between atoms: _253  and  _254
REMARK  103  A    between atoms: _263  and  _265
REMARK  104  A    between atoms: _265  and  _266
REMARK  105  A    between atoms: _265  and  _268
REMARK  106  A    between atoms: _268  and  _269
REMARK  107  A    between atoms: _274  and  _276
REMARK  108  A    between atoms: _276  and  _277
REMARK  109  A    between atoms: _276  and  _279
REMARK  110  A    between atoms: _279  and  _280
REMARK  111  A    between atoms: _283  and  _285
REMARK  112  A    between atoms: _285  and  _286
REMARK  113  A    between atoms: _285  and  _288
REMARK  114  A    between atoms: _288  and  _289
REMARK  115  A    between atoms: _289  and  _290
REMARK  116  A    between atoms: _295  and  _297
REMARK  117  A    between atoms: _297  and  _298
REMARK  118  A    between atoms: _297  and  _300
REMARK  119  A    between atoms: _300  and  _301
REMARK  120  A    between atoms: _304  and  _306
REMARK  121  A    between atoms: _306  and  _307
REMARK  122  A    between atoms: _306  and  _309
REMARK  123  A    between atoms: _311  and  _313
REMARK  124  A    between atoms: _313  and  _314
REMARK  125  A    between atoms: _313  and  _316
REMARK  126  A    between atoms: _316  and  _317
REMARK  127  A    between atoms: _320  and  _322
REMARK  128  A    between atoms: _322  and  _323
REMARK  129  A    between atoms: _322  and  _325
REMARK  130  A    between atoms: _325  and  _326
REMARK  131  A    between atoms: _331  and  _333
REMARK  132  A    between atoms: _333  and  _334
REMARK  133  A    between atoms: _333  and  _336
REMARK  134  A    between atoms: _336  and  _337
REMARK  135  A    between atoms: _337  and  _338
REMARK  136  A    between atoms: _343  and  _345
REMARK  137  A    between atoms: _345  and  _346
REMARK  138  A    between atoms: _345  and  _348
REMARK  139  A    between atoms: _348  and  _349
REMARK  140  A    between atoms: _352  and  _354
REMARK  141  A    between atoms: _354  and  _355
REMARK  142  A    between atoms: _354  and  _357
REMARK  143  A    between atoms: _357  and  _358
REMARK  144  A    between atoms: _361  and  _363
REMARK  145  A    between atoms: _363  and  _364
REMARK  146  A    between atoms: _363  and  _366
REMARK  147  A    between atoms: _366  and  _367
REMARK  148  A    between atoms: _367  and  _368
REMARK  149  A    between atoms: _368  and  _369
REMARK  150  A    between atoms: _378  and  _380
REMARK  151  A    between atoms: _380  and  _381
REMARK  152  A    between atoms: _380  and  _383
REMARK  153  A    between atoms: _383  and  _384
REMARK  154  A    between atoms: _384  and  _385
REMARK  155  A    between atoms: _388  and  _390
REMARK  156  A    between atoms: _390  and  _391
REMARK  157  A    between atoms: _390  and  _393
REMARK  158  A    between atoms: _393  and  _394
REMARK  159  A    between atoms: _396  and  _398
REMARK  160  A    between atoms: _398  and  _399
REMARK  161  A    between atoms: _398  and  _401
REMARK  162  A    between atoms: _401  and  _402
REMARK  163  A    between atoms: _405  and  _407
REMARK  164  A    between atoms: _407  and  _408
REMARK  165  A    between atoms: _407  and  _410
REMARK  166  A    between atoms: _410  and  _411
REMARK  167  A    between atoms: _411  and  _412
REMARK  168  A    between atoms: _412  and  _413
REMARK  169  A    between atoms: _422  and  _424
REMARK  170  A    between atoms: _424  and  _425
REMARK  171  A    between atoms: _424  and  _427
REMARK  172  A    between atoms: _427  and  _428
REMARK  173  A    between atoms: _433  and  _435
REMARK  174  A    between atoms: _435  and  _436
REMARK  175  A    between atoms: _435  and  _438
REMARK  176  A    between atoms: _438  and  _439
REMARK  177  A    between atoms: _442  and  _444
REMARK  178  A    between atoms: _444  and  _445
REMARK  179  A    between atoms: _444  and  _447
REMARK  180  A    between atoms: _447  and  _448
REMARK  181  A    between atoms: _453  and  _454
REMARK  182  A    between atoms: _456  and  _458
REMARK  183  A    between atoms: _458  and  _459
REMARK  184  A    between atoms: _458  and  _461
REMARK  185  A    between atoms: _461  and  _462
REMARK  186  A    between atoms: _465  and  _467
REMARK  187  A    between atoms: _467  and  _468
REMARK  188  A    between atoms: _467  and  _470
REMARK  189  A    between atoms: _470  and  _471
REMARK  190  A    between atoms: _471  and  _472
REMARK  191  A    between atoms: _477  and  _479
REMARK  192  A    between atoms: _479  and  _480
REMARK  193  A    between atoms: _479  and  _482
REMARK  194  A    between atoms: _482  and  _483
REMARK  195  A    between atoms: _483  and  _484
REMARK  196  A    between atoms: _484  and  _485
REMARK  197  A    between atoms: _494  and  _496
REMARK  198  A    between atoms: _496  and  _497
REMARK  199  A    between atoms: _496  and  _499
REMARK  200  A    between atoms: _499  and  _500
REMARK  201  A    between atoms: _505  and  _506
REMARK  202  A    between atoms: _508  and  _510
REMARK  203  A    between atoms: _510  and  _511
REMARK  204  A    between atoms: _513  and  _515
REMARK  205  A    between atoms: _515  and  _516
REMARK  206  A    between atoms: _515  and  _518
REMARK  207  A    between atoms: _518  and  _519
REMARK  208  A    between atoms: _524  and  _526
REMARK  209  A    between atoms: _526  and  _527
REMARK  210  A    between atoms: _526  and  _529
REMARK  211  A    between atoms: _529  and  _530
REMARK  212  A    between atoms: _530  and  _531
REMARK  213  A    between atoms: _536  and  _538
REMARK  214  A    between atoms: _538  and  _539
REMARK  215  A    between atoms: _538  and  _541
REMARK  216  A    between atoms: _541  and  _542
REMARK  217  A    between atoms: _548  and  _550
REMARK  218  A    between atoms: _550  and  _551
REMARK  219  A    between atoms: _554  and  _556
REMARK  220  A    between atoms: _556  and  _557
REMARK  221  A    between atoms: _556  and  _559
REMARK  222  A    between atoms: _559  and  _560
REMARK  223  A    between atoms: _565  and  _566
REMARK  224  A    between atoms: _568  and  _570
REMARK  225  A    between atoms: _570  and  _571
REMARK  226  A    between atoms: _570  and  _573
REMARK  227  A    between atoms: _573  and  _574
REMARK  228  A    between atoms: _579  and  _580
REMARK  229  A    between atoms: _582  and  _584
REMARK  230  A    between atoms: _584  and  _585
REMARK  231  A    between atoms: _584  and  _587
REMARK  232  A    between atoms: _587  and  _588
REMARK  233  A    between atoms: _591  and  _593
REMARK  234  A    between atoms: _593  and  _594
REMARK  235  A    between atoms: _593  and  _596
REMARK  236  A    between atoms: _596  and  _597
REMARK  237  A    between atoms: _607  and  _609
REMARK  238  A    between atoms: _609  and  _610
REMARK  239  A    between atoms: _613  and  _615
REMARK  240  A    between atoms: _615  and  _616
REMARK  241  A    between atoms: _619  and  _621
REMARK  242  A    between atoms: _621  and  _622
REMARK  243  A    between atoms: _621  and  _624
REMARK  244  A    between atoms: _624  and  _625
REMARK  245  A    between atoms: _625  and  _626
REMARK  246  A    between atoms: _631  and  _633
REMARK  247  A    between atoms: _633  and  _634
REMARK  248  A    between atoms: _633  and  _636
REMARK  249  A    between atoms: _636  and  _637
REMARK  250  A    between atoms: _640  and  _642
REMARK  251  A    between atoms: _642  and  _643
REMARK  252  A    between atoms: _642  and  _645
REMARK  253  A    between atoms: _645  and  _646
REMARK  254  A    between atoms: _649  and  _651
REMARK  255  A    between atoms: _651  and  _652
REMARK  256  A    between atoms: _651  and  _654
REMARK  257  A    between atoms: _654  and  _655
REMARK  258  A    between atoms: _655  and  _656
REMARK  259  A    between atoms: _661  and  _663
REMARK  260  A    between atoms: _663  and  _664
REMARK  261  A    between atoms: _663  and  _666
REMARK  262  A    between atoms: _666  and  _667
REMARK  263  A    between atoms: _667  and  _668
REMARK  264  A    between atoms: _668  and  _669
REMARK  265  A    between atoms: _678  and  _680
REMARK  266  A    between atoms: _680  and  _681
REMARK  267  A    between atoms: _680  and  _683
REMARK  268  A    between atoms: _683  and  _684
REMARK  269  A    between atoms: _684  and  _685
REMARK  270  A    between atoms: _685  and  _686
REMARK  271  A    between atoms: _686  and  _687
REMARK  272  A    between atoms: _691  and  _693
REMARK  273  A    between atoms: _693  and  _694
REMARK  274  A    between atoms: _693  and  _696
REMARK  275  A    between atoms: _696  and  _697
REMARK  276  A    between atoms: _707  and  _709
REMARK  277  A    between atoms: _709  and  _710
REMARK  278  A    between atoms: _713  and  _715
REMARK  279  A    between atoms: _715  and  _716
REMARK  280  A    between atoms: _719  and  _721
REMARK  281  A    between atoms: _721  and  _722
REMARK  282  A    between atoms: _721  and  _724
REMARK  283  A    between atoms: _724  and  _725
REMARK  284  A    between atoms: _725  and  _726
REMARK  285  A    between atoms: _726  and  _727
REMARK  286  A    between atoms: _736  and  _738
REMARK  287  A    between atoms: _738  and  _739
REMARK  288  A    between atoms: _738  and  _741
REMARK  289  A    between atoms: _744  and  _746
REMARK  290  A    between atoms: _746  and  _747
REMARK  291  A    between atoms: _750  and  _752
REMARK  292  A    between atoms: _752  and  _753
REMARK  293  A    between atoms: _752  and  _755
REMARK  294  A    between atoms: _755  and  _756
REMARK  295  A    between atoms: _756  and  _757
REMARK  296  A    between atoms: _760  and  _762
REMARK  297  A    between atoms: _762  and  _763
REMARK  298  A    between atoms: _762  and  _765
REMARK  299  A    between atoms: _765  and  _766
REMARK  300  A    between atoms: _766  and  _767
REMARK  301  A    between atoms: _772  and  _774
REMARK  302  A    between atoms: _774  and  _775
REMARK  303  A    between atoms: _774  and  _777
REMARK  304  A    between atoms: _777  and  _778
REMARK  305  A    between atoms: _781  and  _783
REMARK  306  A    between atoms: _783  and  _784
REMARK  307  A    between atoms: _783  and  _786
REMARK  308  A    between atoms: _786  and  _787
REMARK  309  A    between atoms: _787  and  _788
REMARK  310  A    between atoms: _788  and  _789
REMARK  311  A    between atoms: _798  and  _800
REMARK  312  A    between atoms: _800  and  _801
REMARK  313  A    between atoms: _800  and  _803
REMARK  314  A    between atoms: _803  and  _804
REMARK  315  A    between atoms: _807  and  _809
REMARK  316  A    between atoms: _809  and  _810
REMARK  317  A    between atoms: _809  and  _812
REMARK  318  A    between atoms: _812  and  _813
REMARK  319  A    between atoms: _818  and  _819
REMARK  320  A    between atoms: _821  and  _823
REMARK  321  A    between atoms: _823  and  _824
REMARK  322  A    between atoms: _823  and  _826
REMARK  323  A    between atoms: _826  and  _827
REMARK  324  A    between atoms: _830  and  _832
REMARK  325  A    between atoms: _832  and  _833
REMARK  326  A    between atoms: _832  and  _835
REMARK  327  A    between atoms: _835  and  _836
REMARK  328  A    between atoms: _839  and  _841
REMARK  329  A    between atoms: _841  and  _842
REMARK  330  A    between atoms: _841  and  _844
REMARK  331  A    between atoms: _846  and  _848
REMARK  332  A    between atoms: _848  and  _849
REMARK  333  A    between atoms: _848  and  _851
REMARK  334  A    between atoms: _854  and  _856
REMARK  335  A    between atoms: _856  and  _857
REMARK  336  A    between atoms: _856  and  _859
REMARK  337  A    between atoms: _859  and  _860
REMARK  338  A    between atoms: _860  and  _861
REMARK  339  A    between atoms: _864  and  _866
REMARK  340  A    between atoms: _866  and  _867
REMARK  341  A    between atoms: _866  and  _869
REMARK  342  A    between atoms: _869  and  _870
REMARK  343  A    between atoms: _880  and  _882
REMARK  344  A    between atoms: _882  and  _883
REMARK  345  A    between atoms: _882  and  _885
REMARK  346  A    between atoms: _885  and  _886
REMARK  347  A    between atoms: _889  and  _891
REMARK  348  A    between atoms: _891  and  _892
REMARK  349  A    between atoms: _891  and  _894
REMARK  350  A    between atoms: _894  and  _895
REMARK  351  A    between atoms: _900  and  _901
REMARK                            x       y       z     vdW  Elec       q    Type
REMARK                         _______ _______ _______ _____ _____    ______ ____
ROOT
ATOM      1  O   HOH     1      -0.765  15.355  35.090  0.00  0.00    +0.000 OA
ENDROOT
TORSDOF 0
REMARK  Name = ../refined-set-2016/4o2c/4o2c_pocket.pdb
REMARK  351 active torsions:
REMARK  status: ('A' for Active; 'I' for Inactive)
REMARK    1  A    between atoms: _1  and  _3
REMARK    2  A    between atoms: _3  and  _4
REMARK    3  A    between atoms: _3  and  _6
REMARK    4  A    between atoms: _6  and  _7
REMARK    5  A    between atoms: _7  and  _8
REMARK    6  A    between atoms: _10  and  _12
REMARK    7  A    between atoms: _12  and  _13
REMARK    8  A    between atoms: _12  and  _15
REMARK    9  A    between atoms: _15  and  _16
REMARK   10  A    between atoms: _16  and  _17
REMARK   11  A    between atoms: _17  and  _18
REMARK   12  A    between atoms: _27  and  _29
REMARK   13  A    between atoms: _29  and  _30
REMARK   14  A    between atoms: _29  and  _32
REMARK   15  A    between atoms: _32  and  _33
REMARK   16  A    between atoms: _38  and  _39
REMARK   17  A    between atoms: _41  and  _43
REMARK   18  A    between atoms: _43  and  _44
REMARK   19  A    between atoms: _43  and  _46
REMARK   20  A    between atoms: _46  and  _47
REMARK   21  A    between atoms: _53  and  _55
REMARK   22  A    between atoms: _55  and  _56
REMARK   23  A    between atoms: _55  and  _58
REMARK   24  A    between atoms: _58  and  _59
REMARK   25  A    between atoms: _64  and  _65
REMARK   26  A    between atoms: _67  and  _69
REMARK   27  A    between atoms: _69  and  _70
REMARK   28  A    between atoms: _69  and  _72
REMARK   29  A    between atoms: _72  and  _73
REMARK   30  A    between atoms: _79  and  _81
REMARK   31  A    between atoms: _81  and  _82
REMARK   32  A    between atoms: _81  and  _84
REMARK   33  A    between atoms: _84  and  _85
REMARK   34  A    between atoms: _88  and  _90
REMARK   35  A    between atoms: _90  and  _91
REMARK   36  A    between atoms: _90  and  _93
REMARK   37  A    between atoms: _93  and  _94
REMARK   38  A    between atoms: _96  and  _98
REMARK   39  A    between atoms: _98  and  _99
REMARK   40  A    between atoms: _98  and  _101
REMARK   41  A    between atoms: _104  and  _106
REMARK   42  A    between atoms: _106  and  _107
REMARK   43  A    between atoms: _109  and  _111
REMARK   44  A    between atoms: _111  and  _112
REMARK   45  A    between atoms: _111  and  _114
REMARK   46  A    between atoms: _114  and  _115
REMARK   47  A    between atoms: _121  and  _123
REMARK   48  A    between atoms: _123  and  _124
REMARK   49  A    between atoms: _123  and  _126
REMARK   50  A    between atoms: _129  and  _131
REMARK   51  A    between atoms: _131  and  _132
REMARK   52  A    between atoms: _131  and  _134
REMARK   53  A    between atoms: _134  and  _135
REMARK   54  A    between atoms: _135  and  _136
REMARK   55  A    between atoms: _136  and  _137
REMARK   56  A    between atoms: _146  and  _148
REMARK   57  A    between atoms: _148  and  _149
REMARK   58  A    between atoms: _148  and  _151
REMARK   59  A    between atoms: _151  and  _152
REMARK   60  A    between atoms: _158  and  _160
REMARK   61  A    between atoms: _160  and  _161
REMARK   62  A    between atoms: _160  and  _163
REMARK   63  A    between atoms: _163  and  _164
REMARK   64  A    between atoms: _164  and  _165
REMARK   65  A    between atoms: _168  and  _170
REMARK   66  A    between atoms: _170  and  _171
REMARK   67  A    between atoms: _170  and  _173
REMARK   68  A    between atoms: _173  and  _174
REMARK   69  A    between atoms: _174  and  _175
REMARK   70  A    between atoms: _178  and  _180
REMARK   71  A    between atoms: _180  and  _181
REMARK   72  A    between atoms: _180  and  _183
REMARK   73  A    between atoms: _183  and  _184
REMARK   74  A    between atoms: _187  and  _189
REMARK   75  A    between atoms: _189  and  _190
REMARK   76  A    between atoms: _189  and  _192
REMARK   77  A    between atoms: _192  and  _193
REMARK   78  A    between atoms: _193  and  _194
REMARK   79  A    between atoms: _197  and  _199
REMARK   80  A    between atoms: _199  and  _200
REMARK   81  A    between atoms: _199  and  _202
REMARK   82  A    between atoms: _202  and  _203
REMARK   83  A    between atoms: _203  and  _204
REMARK   84  A    between atoms: _207  and  _209
REMARK   85  A    between atoms: _209  and  _210
REMARK   86  A    between atoms: _209  and  _212
REMARK   87  A    between atoms: _212  and  _213
REMARK   88  A    between atoms: _218  and  _219
REMARK   89  A    between atoms: _221  and  _223
REMARK   90  A    between atoms: _223  and  _224
REMARK   91  A    between atoms: _223  and  _226
REMARK   92  A    between atoms: _226  and  _227
REMARK   93  A    between atoms: _237  and  _239
REMARK   94  A    between atoms: _239  and  _240
REMARK   95  A    between atoms: _239  and  _242
REMARK   96  A    between atoms: _242  and  _243
REMARK   97  A    between atoms: _246  and  _248
REMARK   98  A    between atoms: _248  and  _249
REMARK   99  A    between atoms: _248  and  _251
REMARK  100  A    between atoms: _251  and  _252
REMARK  101  A    between atoms: _252  and  _253
REMARK  102  A    between atoms: _253  and  _254
REMARK  103  A    between atoms: _263  and  _265
REMARK  104  A    between atoms: _265  and  _266
REMARK  105  A    between atoms: _265  and  _268
REMARK  106  A    between atoms: _268  and  _269
REMARK  107  A    between atoms: _274  and  _276
REMARK  108  A    between atoms: _276  and  _277
REMARK  109  A    between atoms: _276  and  _279
REMARK  110  A    between atoms: _279  and  _280
REMARK  111  A    between atoms: _283  and  _285
REMARK  112  A    between atoms: _285  and  _286
REMARK  113  A    between atoms: _285  and  _288
REMARK  114  A    between atoms: _288  and  _289
REMARK  115  A    between atoms: _289  and  _290
REMARK  116  A    between atoms: _295  and  _297
REMARK  117  A    between atoms: _297  and  _298
REMARK  118  A    between atoms: _297  and  _300
REMARK  119  A    between atoms: _300  and  _301
REMARK  120  A    between atoms: _304  and  _306
REMARK  121  A    between atoms: _306  and  _307
REMARK  122  A    between atoms: _306  and  _309
REMARK  123  A    between atoms: _311  and  _313
REMARK  124  A    between atoms: _313  and  _314
REMARK  125  A    between atoms: _313  and  _316
REMARK  126  A    between atoms: _316  and  _317
REMARK  127  A    between atoms: _320  and  _322
REMARK  128  A    between atoms: _322  and  _323
REMARK  129  A    between atoms: _322  and  _325
REMARK  130  A    between atoms: _325  and  _326
REMARK  131  A    between atoms: _331  and  _333
REMARK  132  A    between atoms: _333  and  _334
REMARK  133  A    between atoms: _333  and  _336
REMARK  134  A    between atoms: _336  and  _337
REMARK  135  A    between atoms: _337  and  _338
REMARK  136  A    between atoms: _343  and  _345
REMARK  137  A    between atoms: _345  and  _346
REMARK  138  A    between atoms: _345  and  _348
REMARK  139  A    between atoms: _348  and  _349
REMARK  140  A    between atoms: _352  and  _354
REMARK  141  A    between atoms: _354  and  _355
REMARK  142  A    between atoms: _354  and  _357
REMARK  143  A    between atoms: _357  and  _358
REMARK  144  A    between atoms: _361  and  _363
REMARK  145  A    between atoms: _363  and  _364
REMARK  146  A    between atoms: _363  and  _366
REMARK  147  A    between atoms: _366  and  _367
REMARK  148  A    between atoms: _367  and  _368
REMARK  149  A    between atoms: _368  and  _369
REMARK  150  A    between atoms: _378  and  _380
REMARK  151  A    between atoms: _380  and  _381
REMARK  152  A    between atoms: _380  and  _383
REMARK  153  A    between atoms: _383  and  _384
REMARK  154  A    between atoms: _384  and  _385
REMARK  155  A    between atoms: _388  and  _390
REMARK  156  A    between atoms: _390  and  _391
REMARK  157  A    between atoms: _390  and  _393
REMARK  158  A    between atoms: _393  and  _394
REMARK  159  A    between atoms: _396  and  _398
REMARK  160  A    between atoms: _398  and  _399
REMARK  161  A    between atoms: _398  and  _401
REMARK  162  A    between atoms: _401  and  _402
REMARK  163  A    between atoms: _405  and  _407
REMARK  164  A    between atoms: _407  and  _408
REMARK  165  A    between atoms: _407  and  _410
REMARK  166  A    between atoms: _410  and  _411
REMARK  167  A    between atoms: _411  and  _412
REMARK  168  A    between atoms: _412  and  _413
REMARK  169  A    between atoms: _422  and  _424
REMARK  170  A    between atoms: _424  and  _425
REMARK  171  A    between atoms: _424  and  _427
REMARK  172  A    between atoms: _427  and  _428
REMARK  173  A    between atoms: _433  and  _435
REMARK  174  A    between atoms: _435  and  _436
REMARK  175  A    between atoms: _435  and  _438
REMARK  176  A    between atoms: _438  and  _439
REMARK  177  A    between atoms: _442  and  _444
REMARK  178  A    between atoms: _444  and  _445
REMARK  179  A    between atoms: _444  and  _447
REMARK  180  A    between atoms: _447  and  _448
REMARK  181  A    between atoms: _453  and  _454
REMARK  182  A    between atoms: _456  and  _458
REMARK  183  A    between atoms: _458  and  _459
REMARK  184  A    between atoms: _458  and  _461
REMARK  185  A    between atoms: _461  and  _462
REMARK  186  A    between atoms: _465  and  _467
REMARK  187  A    between atoms: _467  and  _468
REMARK  188  A    between atoms: _467  and  _470
REMARK  189  A    between atoms: _470  and  _471
REMARK  190  A    between atoms: _471  and  _472
REMARK  191  A    between atoms: _477  and  _479
REMARK  192  A    between atoms: _479  and  _480
REMARK  193  A    between atoms: _479  and  _482
REMARK  194  A    between atoms: _482  and  _483
REMARK  195  A    between atoms: _483  and  _484
REMARK  196  A    between atoms: _484  and  _485
REMARK  197  A    between atoms: _494  and  _496
REMARK  198  A    between atoms: _496  and  _497
REMARK  199  A    between atoms: _496  and  _499
REMARK  200  A    between atoms: _499  and  _500
REMARK  201  A    between atoms: _505  and  _506
REMARK  202  A    between atoms: _508  and  _510
REMARK  203  A    between atoms: _510  and  _511
REMARK  204  A    between atoms: _513  and  _515
REMARK  205  A    between atoms: _515  and  _516
REMARK  206  A    between atoms: _515  and  _518
REMARK  207  A    between atoms: _518  and  _519
REMARK  208  A    between atoms: _524  and  _526
REMARK  209  A    between atoms: _526  and  _527
REMARK  210  A    between atoms: _526  and  _529
REMARK  211  A    between atoms: _529  and  _530
REMARK  212  A    between atoms: _530  and  _531
REMARK  213  A    between atoms: _536  and  _538
REMARK  214  A    between atoms: _538  and  _539
REMARK  215  A    between atoms: _538  and  _541
REMARK  216  A    between atoms: _541  and  _542
REMARK  217  A    between atoms: _548  and  _550
REMARK  218  A    between atoms: _550  and  _551
REMARK  219  A    between atoms: _554  and  _556
REMARK  220  A    between atoms: _556  and  _557
REMARK  221  A    between atoms: _556  and  _559
REMARK  222  A    between atoms: _559  and  _560
REMARK  223  A    between atoms: _565  and  _566
REMARK  224  A    between atoms: _568  and  _570
REMARK  225  A    between atoms: _570  and  _571
REMARK  226  A    between atoms: _570  and  _573
REMARK  227  A    between atoms: _573  and  _574
REMARK  228  A    between atoms: _579  and  _580
REMARK  229  A    between atoms: _582  and  _584
REMARK  230  A    between atoms: _584  and  _585
REMARK  231  A    between atoms: _584  and  _587
REMARK  232  A    between atoms: _587  and  _588
REMARK  233  A    between atoms: _591  and  _593
REMARK  234  A    between atoms: _593  and  _594
REMARK  235  A    between atoms: _593  and  _596
REMARK  236  A    between atoms: _596  and  _597
REMARK  237  A    between atoms: _607  and  _609
REMARK  238  A    between atoms: _609  and  _610
REMARK  239  A    between atoms: _613  and  _615
REMARK  240  A    between atoms: _615  and  _616
REMARK  241  A    between atoms: _619  and  _621
REMARK  242  A    between atoms: _621  and  _622
REMARK  243  A    between atoms: _621  and  _624
REMARK  244  A    between atoms: _624  and  _625
REMARK  245  A    between atoms: _625  and  _626
REMARK  246  A    between atoms: _631  and  _633
REMARK  247  A    between atoms: _633  and  _634
REMARK  248  A    between atoms: _633  and  _636
REMARK  249  A    between atoms: _636  and  _637
REMARK  250  A    between atoms: _640  and  _642
REMARK  251  A    between atoms: _642  and  _643
REMARK  252  A    between atoms: _642  and  _645
REMARK  253  A    between atoms: _645  and  _646
REMARK  254  A    between atoms: _649  and  _651
REMARK  255  A    between atoms: _651  and  _652
REMARK  256  A    between atoms: _651  and  _654
REMARK  257  A    between atoms: _654  and  _655
REMARK  258  A    between atoms: _655  and  _656
REMARK  259  A    between atoms: _661  and  _663
REMARK  260  A    between atoms: _663  and  _664
REMARK  261  A    between atoms: _663  and  _666
REMARK  262  A    between atoms: _666  and  _667
REMARK  263  A    between atoms: _667  and  _668
REMARK  264  A    between atoms: _668  and  _669
REMARK  265  A    between atoms: _678  and  _680
REMARK  266  A    between atoms: _680  and  _681
REMARK  267  A    between atoms: _680  and  _683
REMARK  268  A    between atoms: _683  and  _684
REMARK  269  A    between atoms: _684  and  _685
REMARK  270  A    between atoms: _685  and  _686
REMARK  271  A    between atoms: _686  and  _687
REMARK  272  A    between atoms: _691  and  _693
REMARK  273  A    between atoms: _693  and  _694
REMARK  274  A    between atoms: _693  and  _696
REMARK  275  A    between atoms: _696  and  _697
REMARK  276  A    between atoms: _707  and  _709
REMARK  277  A    between atoms: _709  and  _710
REMARK  278  A    between atoms: _713  and  _715
REMARK  279  A    between atoms: _715  and  _716
REMARK  280  A    between atoms: _719  and  _721
REMARK  281  A    between atoms: _721  and  _722
REMARK  282  A    between atoms: _721  and  _724
REMARK  283  A    between atoms: _724  and  _725
REMARK  284  A    between atoms: _725  and  _726
REMARK  285  A    between atoms: _726  and  _727
REMARK  286  A    between atoms: _736  and  _738
REMARK  287  A    between atoms: _738  and  _739
REMARK  288  A    between atoms: _738  and  _741
REMARK  289  A    between atoms: _744  and  _746
REMARK  290  A    between atoms: _746  and  _747
REMARK  291  A    between atoms: _750  and  _752
REMARK  292  A    between atoms: _752  and  _753
REMARK  293  A    between atoms: _752  and  _755
REMARK  294  A    between atoms: _755  and  _756
REMARK  295  A    between atoms: _756  and  _757
REMARK  296  A    between atoms: _760  and  _762
REMARK  297  A    between atoms: _762  and  _763
REMARK  298  A    between atoms: _762  and  _765
REMARK  299  A    between atoms: _765  and  _766
REMARK  300  A    between atoms: _766  and  _767
REMARK  301  A    between atoms: _772  and  _774
REMARK  302  A    between atoms: _774  and  _775
REMARK  303  A    between atoms: _774  and  _777
REMARK  304  A    between atoms: _777  and  _778
REMARK  305  A    between atoms: _781  and  _783
REMARK  306  A    between atoms: _783  and  _784
REMARK  307  A    between atoms: _783  and  _786
REMARK  308  A    between atoms: _786  and  _787
REMARK  309  A    between atoms: _787  and  _788
REMARK  310  A    between atoms: _788  and  _789
REMARK  311  A    between atoms: _798  and  _800
REMARK  312  A    between atoms: _800  and  _801
REMARK  313  A    between atoms: _800  and  _803
REMARK  314  A    between atoms: _803  and  _804
REMARK  315  A    between atoms: _807  and  _809
REMARK  316  A    between atoms: _809  and  _810
REMARK  317  A    between atoms: _809  and  _812
REMARK  318  A    between atoms: _812  and  _813
REMARK  319  A    between atoms: _818  and  _819
REMARK  320  A    between atoms: _821  and  _823
REMARK  321  A    between atoms: _823  and  _824
REMARK  322  A    between atoms: _823  and  _826
REMARK  323  A    between atoms: _826  and  _827
REMARK  324  A    between atoms: _830  and  _832
REMARK  325  A    between atoms: _832  and  _833
REMARK  326  A    between atoms: _832  and  _835
REMARK  327  A    between atoms: _835  and  _836
REMARK  328  A    between atoms: _839  and  _841
REMARK  329  A    between atoms: _841  and  _842
REMARK  330  A    between atoms: _841  and  _844
REMARK  331  A    between atoms: _846  and  _848
REMARK  332  A    between atoms: _848  and  _849
REMARK  333  A    between atoms: _848  and  _851
REMARK  334  A    between atoms: _854  and  _856
REMARK  335  A    between atoms: _856  and  _857
REMARK  336  A    between atoms: _856  and  _859
REMARK  337  A    between atoms: _859  and  _860
REMARK  338  A    between atoms: _860  and  _861
REMARK  339  A    between atoms: _864  and  _866
REMARK  340  A    between atoms: _866  and  _867
REMARK  341  A    between atoms: _866  and  _869
REMARK  342  A    between atoms: _869  and  _870
REMARK  343  A    between atoms: _880  and  _882
REMARK  344  A    between atoms: _882  and  _883
REMARK  345  A    between atoms: _882  and  _885
REMARK  346  A    between atoms: _885  and  _886
REMARK  347  A    between atoms: _889  and  _891
REMARK  348  A    between atoms: _891  and  _892
REMARK  349  A    between atoms: _891  and  _894
REMARK  350  A    between atoms: _894  and  _895
REMARK  351  A    between atoms: _900  and  _901
REMARK                            x       y       z     vdW  Elec       q    Type
REMARK                         _______ _______ _______ _____ _____    ______ ____
ROOT
ATOM      1  O   HOH     1      -2.851  11.493  32.825  0.00  0.00    +0.000 OA
ENDROOT
TORSDOF 0
REMARK  Name = ../refined-set-2016/4o2c/4o2c_pocket.pdb
REMARK  351 active torsions:
REMARK  status: ('A' for Active; 'I' for Inactive)
REMARK    1  A    between atoms: _1  and  _3
REMARK    2  A    between atoms: _3  and  _4
REMARK    3  A    between atoms: _3  and  _6
REMARK    4  A    between atoms: _6  and  _7
REMARK    5  A    between atoms: _7  and  _8
REMARK    6  A    between atoms: _10  and  _12
REMARK    7  A    between atoms: _12  and  _13
REMARK    8  A    between atoms: _12  and  _15
REMARK    9  A    between atoms: _15  and  _16
REMARK   10  A    between atoms: _16  and  _17
REMARK   11  A    between atoms: _17  and  _18
REMARK   12  A    between atoms: _27  and  _29
REMARK   13  A    between atoms: _29  and  _30
REMARK   14  A    between atoms: _29  and  _32
REMARK   15  A    between atoms: _32  and  _33
REMARK   16  A    between atoms: _38  and  _39
REMARK   17  A    between atoms: _41  and  _43
REMARK   18  A    between atoms: _43  and  _44
REMARK   19  A    between atoms: _43  and  _46
REMARK   20  A    between atoms: _46  and  _47
REMARK   21  A    between atoms: _53  and  _55
REMARK   22  A    between atoms: _55  and  _56
REMARK   23  A    between atoms: _55  and  _58
REMARK   24  A    between atoms: _58  and  _59
REMARK   25  A    between atoms: _64  and  _65
REMARK   26  A    between atoms: _67  and  _69
REMARK   27  A    between atoms: _69  and  _70
REMARK   28  A    between atoms: _69  and  _72
REMARK   29  A    between atoms: _72  and  _73
REMARK   30  A    between atoms: _79  and  _81
REMARK   31  A    between atoms: _81  and  _82
REMARK   32  A    between atoms: _81  and  _84
REMARK   33  A    between atoms: _84  and  _85
REMARK   34  A    between atoms: _88  and  _90
REMARK   35  A    between atoms: _90  and  _91
REMARK   36  A    between atoms: _90  and  _93
REMARK   37  A    between atoms: _93  and  _94
REMARK   38  A    between atoms: _96  and  _98
REMARK   39  A    between atoms: _98  and  _99
REMARK   40  A    between atoms: _98  and  _101
REMARK   41  A    between atoms: _104  and  _106
REMARK   42  A    between atoms: _106  and  _107
REMARK   43  A    between atoms: _109  and  _111
REMARK   44  A    between atoms: _111  and  _112
REMARK   45  A    between atoms: _111  and  _114
REMARK   46  A    between atoms: _114  and  _115
REMARK   47  A    between atoms: _121  and  _123
REMARK   48  A    between atoms: _123  and  _124
REMARK   49  A    between atoms: _123  and  _126
REMARK   50  A    between atoms: _129  and  _131
REMARK   51  A    between atoms: _131  and  _132
REMARK   52  A    between atoms: _131  and  _134
REMARK   53  A    between atoms: _134  and  _135
REMARK   54  A    between atoms: _135  and  _136
REMARK   55  A    between atoms: _136  and  _137
REMARK   56  A    between atoms: _146  and  _148
REMARK   57  A    between atoms: _148  and  _149
REMARK   58  A    between atoms: _148  and  _151
REMARK   59  A    between atoms: _151  and  _152
REMARK   60  A    between atoms: _158  and  _160
REMARK   61  A    between atoms: _160  and  _161
REMARK   62  A    between atoms: _160  and  _163
REMARK   63  A    between atoms: _163  and  _164
REMARK   64  A    between atoms: _164  and  _165
REMARK   65  A    between atoms: _168  and  _170
REMARK   66  A    between atoms: _170  and  _171
REMARK   67  A    between atoms: _170  and  _173
REMARK   68  A    between atoms: _173  and  _174
REMARK   69  A    between atoms: _174  and  _175
REMARK   70  A    between atoms: _178  and  _180
REMARK   71  A    between atoms: _180  and  _181
REMARK   72  A    between atoms: _180  and  _183
REMARK   73  A    between atoms: _183  and  _184
REMARK   74  A    between atoms: _187  and  _189
REMARK   75  A    between atoms: _189  and  _190
REMARK   76  A    between atoms: _189  and  _192
REMARK   77  A    between atoms: _192  and  _193
REMARK   78  A    between atoms: _193  and  _194
REMARK   79  A    between atoms: _197  and  _199
REMARK   80  A    between atoms: _199  and  _200
REMARK   81  A    between atoms: _199  and  _202
REMARK   82  A    between atoms: _202  and  _203
REMARK   83  A    between atoms: _203  and  _204
REMARK   84  A    between atoms: _207  and  _209
REMARK   85  A    between atoms: _209  and  _210
REMARK   86  A    between atoms: _209  and  _212
REMARK   87  A    between atoms: _212  and  _213
REMARK   88  A    between atoms: _218  and  _219
REMARK   89  A    between atoms: _221  and  _223
REMARK   90  A    between atoms: _223  and  _224
REMARK   91  A    between atoms: _223  and  _226
REMARK   92  A    between atoms: _226  and  _227
REMARK   93  A    between atoms: _237  and  _239
REMARK   94  A    between atoms: _239  and  _240
REMARK   95  A    between atoms: _239  and  _242
REMARK   96  A    between atoms: _242  and  _243
REMARK   97  A    between atoms: _246  and  _248
REMARK   98  A    between atoms: _248  and  _249
REMARK   99  A    between atoms: _248  and  _251
REMARK  100  A    between atoms: _251  and  _252
REMARK  101  A    between atoms: _252  and  _253
REMARK  102  A    between atoms: _253  and  _254
REMARK  103  A    between atoms: _263  and  _265
REMARK  104  A    between atoms: _265  and  _266
REMARK  105  A    between atoms: _265  and  _268
REMARK  106  A    between atoms: _268  and  _269
REMARK  107  A    between atoms: _274  and  _276
REMARK  108  A    between atoms: _276  and  _277
REMARK  109  A    between atoms: _276  and  _279
REMARK  110  A    between atoms: _279  and  _280
REMARK  111  A    between atoms: _283  and  _285
REMARK  112  A    between atoms: _285  and  _286
REMARK  113  A    between atoms: _285  and  _288
REMARK  114  A    between atoms: _288  and  _289
REMARK  115  A    between atoms: _289  and  _290
REMARK  116  A    between atoms: _295  and  _297
REMARK  117  A    between atoms: _297  and  _298
REMARK  118  A    between atoms: _297  and  _300
REMARK  119  A    between atoms: _300  and  _301
REMARK  120  A    between atoms: _304  and  _306
REMARK  121  A    between atoms: _306  and  _307
REMARK  122  A    between atoms: _306  and  _309
REMARK  123  A    between atoms: _311  and  _313
REMARK  124  A    between atoms: _313  and  _314
REMARK  125  A    between atoms: _313  and  _316
REMARK  126  A    between atoms: _316  and  _317
REMARK  127  A    between atoms: _320  and  _322
REMARK  128  A    between atoms: _322  and  _323
REMARK  129  A    between atoms: _322  and  _325
REMARK  130  A    between atoms: _325  and  _326
REMARK  131  A    between atoms: _331  and  _333
REMARK  132  A    between atoms: _333  and  _334
REMARK  133  A    between atoms: _333  and  _336
REMARK  134  A    between atoms: _336  and  _337
REMARK  135  A    between atoms: _337  and  _338
REMARK  136  A    between atoms: _343  and  _345
REMARK  137  A    between atoms: _345  and  _346
REMARK  138  A    between atoms: _345  and  _348
REMARK  139  A    between atoms: _348  and  _349
REMARK  140  A    between atoms: _352  and  _354
REMARK  141  A    between atoms: _354  and  _355
REMARK  142  A    between atoms: _354  and  _357
REMARK  143  A    between atoms: _357  and  _358
REMARK  144  A    between atoms: _361  and  _363
REMARK  145  A    between atoms: _363  and  _364
REMARK  146  A    between atoms: _363  and  _366
REMARK  147  A    between atoms: _366  and  _367
REMARK  148  A    between atoms: _367  and  _368
REMARK  149  A    between atoms: _368  and  _369
REMARK  150  A    between atoms: _378  and  _380
REMARK  151  A    between atoms: _380  and  _381
REMARK  152  A    between atoms: _380  and  _383
REMARK  153  A    between atoms: _383  and  _384
REMARK  154  A    between atoms: _384  and  _385
REMARK  155  A    between atoms: _388  and  _390
REMARK  156  A    between atoms: _390  and  _391
REMARK  157  A    between atoms: _390  and  _393
REMARK  158  A    between atoms: _393  and  _394
REMARK  159  A    between atoms: _396  and  _398
REMARK  160  A    between atoms: _398  and  _399
REMARK  161  A    between atoms: _398  and  _401
REMARK  162  A    between atoms: _401  and  _402
REMARK  163  A    between atoms: _405  and  _407
REMARK  164  A    between atoms: _407  and  _408
REMARK  165  A    between atoms: _407  and  _410
REMARK  166  A    between atoms: _410  and  _411
REMARK  167  A    between atoms: _411  and  _412
REMARK  168  A    between atoms: _412  and  _413
REMARK  169  A    between atoms: _422  and  _424
REMARK  170  A    between atoms: _424  and  _425
REMARK  171  A    between atoms: _424  and  _427
REMARK  172  A    between atoms: _427  and  _428
REMARK  173  A    between atoms: _433  and  _435
REMARK  174  A    between atoms: _435  and  _436
REMARK  175  A    between atoms: _435  and  _438
REMARK  176  A    between atoms: _438  and  _439
REMARK  177  A    between atoms: _442  and  _444
REMARK  178  A    between atoms: _444  and  _445
REMARK  179  A    between atoms: _444  and  _447
REMARK  180  A    between atoms: _447  and  _448
REMARK  181  A    between atoms: _453  and  _454
REMARK  182  A    between atoms: _456  and  _458
REMARK  183  A    between atoms: _458  and  _459
REMARK  184  A    between atoms: _458  and  _461
REMARK  185  A    between atoms: _461  and  _462
REMARK  186  A    between atoms: _465  and  _467
REMARK  187  A    between atoms: _467  and  _468
REMARK  188  A    between atoms: _467  and  _470
REMARK  189  A    between atoms: _470  and  _471
REMARK  190  A    between atoms: _471  and  _472
REMARK  191  A    between atoms: _477  and  _479
REMARK  192  A    between atoms: _479  and  _480
REMARK  193  A    between atoms: _479  and  _482
REMARK  194  A    between atoms: _482  and  _483
REMARK  195  A    between atoms: _483  and  _484
REMARK  196  A    between atoms: _484  and  _485
REMARK  197  A    between atoms: _494  and  _496
REMARK  198  A    between atoms: _496  and  _497
REMARK  199  A    between atoms: _496  and  _499
REMARK  200  A    between atoms: _499  and  _500
REMARK  201  A    between atoms: _505  and  _506
REMARK  202  A    between atoms: _508  and  _510
REMARK  203  A    between atoms: _510  and  _511
REMARK  204  A    between atoms: _513  and  _515
REMARK  205  A    between atoms: _515  and  _516
REMARK  206  A    between atoms: _515  and  _518
REMARK  207  A    between atoms: _518  and  _519
REMARK  208  A    between atoms: _524  and  _526
REMARK  209  A    between atoms: _526  and  _527
REMARK  210  A    between atoms: _526  and  _529
REMARK  211  A    between atoms: _529  and  _530
REMARK  212  A    between atoms: _530  and  _531
REMARK  213  A    between atoms: _536  and  _538
REMARK  214  A    between atoms: _538  and  _539
REMARK  215  A    between atoms: _538  and  _541
REMARK  216  A    between atoms: _541  and  _542
REMARK  217  A    between atoms: _548  and  _550
REMARK  218  A    between atoms: _550  and  _551
REMARK  219  A    between atoms: _554  and  _556
REMARK  220  A    between atoms: _556  and  _557
REMARK  221  A    between atoms: _556  and  _559
REMARK  222  A    between atoms: _559  and  _560
REMARK  223  A    between atoms: _565  and  _566
REMARK  224  A    between atoms: _568  and  _570
REMARK  225  A    between atoms: _570  and  _571
REMARK  226  A    between atoms: _570  and  _573
REMARK  227  A    between atoms: _573  and  _574
REMARK  228  A    between atoms: _579  and  _580
REMARK  229  A    between atoms: _582  and  _584
REMARK  230  A    between atoms: _584  and  _585
REMARK  231  A    between atoms: _584  and  _587
REMARK  232  A    between atoms: _587  and  _588
REMARK  233  A    between atoms: _591  and  _593
REMARK  234  A    between atoms: _593  and  _594
REMARK  235  A    between atoms: _593  and  _596
REMARK  236  A    between atoms: _596  and  _597
REMARK  237  A    between atoms: _607  and  _609
REMARK  238  A    between atoms: _609  and  _610
REMARK  239  A    between atoms: _613  and  _615
REMARK  240  A    between atoms: _615  and  _616
REMARK  241  A    between atoms: _619  and  _621
REMARK  242  A    between atoms: _621  and  _622
REMARK  243  A    between atoms: _621  and  _624
REMARK  244  A    between atoms: _624  and  _625
REMARK  245  A    between atoms: _625  and  _626
REMARK  246  A    between atoms: _631  and  _633
REMARK  247  A    between atoms: _633  and  _634
REMARK  248  A    between atoms: _633  and  _636
REMARK  249  A    between atoms: _636  and  _637
REMARK  250  A    between atoms: _640  and  _642
REMARK  251  A    between atoms: _642  and  _643
REMARK  252  A    between atoms: _642  and  _645
REMARK  253  A    between atoms: _645  and  _646
REMARK  254  A    between atoms: _649  and  _651
REMARK  255  A    between atoms: _651  and  _652
REMARK  256  A    between atoms: _651  and  _654
REMARK  257  A    between atoms: _654  and  _655
REMARK  258  A    between atoms: _655  and  _656
REMARK  259  A    between atoms: _661  and  _663
REMARK  260  A    between atoms: _663  and  _664
REMARK  261  A    between atoms: _663  and  _666
REMARK  262  A    between atoms: _666  and  _667
REMARK  263  A    between atoms: _667  and  _668
REMARK  264  A    between atoms: _668  and  _669
REMARK  265  A    between atoms: _678  and  _680
REMARK  266  A    between atoms: _680  and  _681
REMARK  267  A    between atoms: _680  and  _683
REMARK  268  A    between atoms: _683  and  _684
REMARK  269  A    between atoms: _684  and  _685
REMARK  270  A    between atoms: _685  and  _686
REMARK  271  A    between atoms: _686  and  _687
REMARK  272  A    between atoms: _691  and  _693
REMARK  273  A    between atoms: _693  and  _694
REMARK  274  A    between atoms: _693  and  _696
REMARK  275  A    between atoms: _696  and  _697
REMARK  276  A    between atoms: _707  and  _709
REMARK  277  A    between atoms: _709  and  _710
REMARK  278  A    between atoms: _713  and  _715
REMARK  279  A    between atoms: _715  and  _716
REMARK  280  A    between atoms: _719  and  _721
REMARK  281  A    between atoms: _721  and  _722
REMARK  282  A    between atoms: _721  and  _724
REMARK  283  A    between atoms: _724  and  _725
REMARK  284  A    between atoms: _725  and  _726
REMARK  285  A    between atoms: _726  and  _727
REMARK  286  A    between atoms: _736  and  _738
REMARK  287  A    between atoms: _738  and  _739
REMARK  288  A    between atoms: _738  and  _741
REMARK  289  A    between atoms: _744  and  _746
REMARK  290  A    between atoms: _746  and  _747
REMARK  291  A    between atoms: _750  and  _752
REMARK  292  A    between atoms: _752  and  _753
REMARK  293  A    between atoms: _752  and  _755
REMARK  294  A    between atoms: _755  and  _756
REMARK  295  A    between atoms: _756  and  _757
REMARK  296  A    between atoms: _760  and  _762
REMARK  297  A    between atoms: _762  and  _763
REMARK  298  A    between atoms: _762  and  _765
REMARK  299  A    between atoms: _765  and  _766
REMARK  300  A    between atoms: _766  and  _767
REMARK  301  A    between atoms: _772  and  _774
REMARK  302  A    between atoms: _774  and  _775
REMARK  303  A    between atoms: _774  and  _777
REMARK  304  A    between atoms: _777  and  _778
REMARK  305  A    between atoms: _781  and  _783
REMARK  306  A    between atoms: _783  and  _784
REMARK  307  A    between atoms: _783  and  _786
REMARK  308  A    between atoms: _786  and  _787
REMARK  309  A    between atoms: _787  and  _788
REMARK  310  A    between atoms: _788  and  _789
REMARK  311  A    between atoms: _798  and  _800
REMARK  312  A    between atoms: _800  and  _801
REMARK  313  A    between atoms: _800  and  _803
REMARK  314  A    between atoms: _803  and  _804
REMARK  315  A    between atoms: _807  and  _809
REMARK  316  A    between atoms: _809  and  _810
REMARK  317  A    between atoms: _809  and  _812
REMARK  318  A    between atoms: _812  and  _813
REMARK  319  A    between atoms: _818  and  _819
REMARK  320  A    between atoms: _821  and  _823
REMARK  321  A    between atoms: _823  and  _824
REMARK  322  A    between atoms: _823  and  _826
REMARK  323  A    between atoms: _826  and  _827
REMARK  324  A    between atoms: _830  and  _832
REMARK  325  A    between atoms: _832  and  _833
REMARK  326  A    between atoms: _832  and  _835
REMARK  327  A    between atoms: _835  and  _836
REMARK  328  A    between atoms: _839  and  _841
REMARK  329  A    between atoms: _841  and  _842
REMARK  330  A    between atoms: _841  and  _844
REMARK  331  A    between atoms: _846  and  _848
REMARK  332  A    between atoms: _848  and  _849
REMARK  333  A    between atoms: _848  and  _851
REMARK  334  A    between atoms: _854  and  _856
REMARK  335  A    between atoms: _856  and  _857
REMARK  336  A    between atoms: _856  and  _859
REMARK  337  A    between atoms: _859  and  _860
REMARK  338  A    between atoms: _860  and  _861
REMARK  339  A    between atoms: _864  and  _866
REMARK  340  A    between atoms: _866  and  _867
REMARK  341  A    between atoms: _866  and  _869
REMARK  342  A    between atoms: _869  and  _870
REMARK  343  A    between atoms: _880  and  _882
REMARK  344  A    between atoms: _882  and  _883
REMARK  345  A    between atoms: _882  and  _885
REMARK  346  A    between atoms: _885  and  _886
REMARK  347  A    between atoms: _889  and  _891
REMARK  348  A    between atoms: _891  and  _892
REMARK  349  A    between atoms: _891  and  _894
REMARK  350  A    between atoms: _894  and  _895
REMARK  351  A    between atoms: _900  and  _901
REMARK                            x       y       z     vdW  Elec       q    Type
REMARK                         _______ _______ _______ _____ _____    ______ ____
ROOT
ATOM      1  O   HOH     1       0.633  12.205  35.642  0.00  0.00    +0.000 OA
ENDROOT
TORSDOF 0
REMARK  Name = ../refined-set-2016/4o2c/4o2c_pocket.pdb
REMARK  351 active torsions:
REMARK  status: ('A' for Active; 'I' for Inactive)
REMARK    1  A    between atoms: _1  and  _3
REMARK    2  A    between atoms: _3  and  _4
REMARK    3  A    between atoms: _3  and  _6
REMARK    4  A    between atoms: _6  and  _7
REMARK    5  A    between atoms: _7  and  _8
REMARK    6  A    between atoms: _10  and  _12
REMARK    7  A    between atoms: _12  and  _13
REMARK    8  A    between atoms: _12  and  _15
REMARK    9  A    between atoms: _15  and  _16
REMARK   10  A    between atoms: _16  and  _17
REMARK   11  A    between atoms: _17  and  _18
REMARK   12  A    between atoms: _27  and  _29
REMARK   13  A    between atoms: _29  and  _30
REMARK   14  A    between atoms: _29  and  _32
REMARK   15  A    between atoms: _32  and  _33
REMARK   16  A    between atoms: _38  and  _39
REMARK   17  A    between atoms: _41  and  _43
REMARK   18  A    between atoms: _43  and  _44
REMARK   19  A    between atoms: _43  and  _46
REMARK   20  A    between atoms: _46  and  _47
REMARK   21  A    between atoms: _53  and  _55
REMARK   22  A    between atoms: _55  and  _56
REMARK   23  A    between atoms: _55  and  _58
REMARK   24  A    between atoms: _58  and  _59
REMARK   25  A    between atoms: _64  and  _65
REMARK   26  A    between atoms: _67  and  _69
REMARK   27  A    between atoms: _69  and  _70
REMARK   28  A    between atoms: _69  and  _72
REMARK   29  A    between atoms: _72  and  _73
REMARK   30  A    between atoms: _79  and  _81
REMARK   31  A    between atoms: _81  and  _82
REMARK   32  A    between atoms: _81  and  _84
REMARK   33  A    between atoms: _84  and  _85
REMARK   34  A    between atoms: _88  and  _90
REMARK   35  A    between atoms: _90  and  _91
REMARK   36  A    between atoms: _90  and  _93
REMARK   37  A    between atoms: _93  and  _94
REMARK   38  A    between atoms: _96  and  _98
REMARK   39  A    between atoms: _98  and  _99
REMARK   40  A    between atoms: _98  and  _101
REMARK   41  A    between atoms: _104  and  _106
REMARK   42  A    between atoms: _106  and  _107
REMARK   43  A    between atoms: _109  and  _111
REMARK   44  A    between atoms: _111  and  _112
REMARK   45  A    between atoms: _111  and  _114
REMARK   46  A    between atoms: _114  and  _115
REMARK   47  A    between atoms: _121  and  _123
REMARK   48  A    between atoms: _123  and  _124
REMARK   49  A    between atoms: _123  and  _126
REMARK   50  A    between atoms: _129  and  _131
REMARK   51  A    between atoms: _131  and  _132
REMARK   52  A    between atoms: _131  and  _134
REMARK   53  A    between atoms: _134  and  _135
REMARK   54  A    between atoms: _135  and  _136
REMARK   55  A    between atoms: _136  and  _137
REMARK   56  A    between atoms: _146  and  _148
REMARK   57  A    between atoms: _148  and  _149
REMARK   58  A    between atoms: _148  and  _151
REMARK   59  A    between atoms: _151  and  _152
REMARK   60  A    between atoms: _158  and  _160
REMARK   61  A    between atoms: _160  and  _161
REMARK   62  A    between atoms: _160  and  _163
REMARK   63  A    between atoms: _163  and  _164
REMARK   64  A    between atoms: _164  and  _165
REMARK   65  A    between atoms: _168  and  _170
REMARK   66  A    between atoms: _170  and  _171
REMARK   67  A    between atoms: _170  and  _173
REMARK   68  A    between atoms: _173  and  _174
REMARK   69  A    between atoms: _174  and  _175
REMARK   70  A    between atoms: _178  and  _180
REMARK   71  A    between atoms: _180  and  _181
REMARK   72  A    between atoms: _180  and  _183
REMARK   73  A    between atoms: _183  and  _184
REMARK   74  A    between atoms: _187  and  _189
REMARK   75  A    between atoms: _189  and  _190
REMARK   76  A    between atoms: _189  and  _192
REMARK   77  A    between atoms: _192  and  _193
REMARK   78  A    between atoms: _193  and  _194
REMARK   79  A    between atoms: _197  and  _199
REMARK   80  A    between atoms: _199  and  _200
REMARK   81  A    between atoms: _199  and  _202
REMARK   82  A    between atoms: _202  and  _203
REMARK   83  A    between atoms: _203  and  _204
REMARK   84  A    between atoms: _207  and  _209
REMARK   85  A    between atoms: _209  and  _210
REMARK   86  A    between atoms: _209  and  _212
REMARK   87  A    between atoms: _212  and  _213
REMARK   88  A    between atoms: _218  and  _219
REMARK   89  A    between atoms: _221  and  _223
REMARK   90  A    between atoms: _223  and  _224
REMARK   91  A    between atoms: _223  and  _226
REMARK   92  A    between atoms: _226  and  _227
REMARK   93  A    between atoms: _237  and  _239
REMARK   94  A    between atoms: _239  and  _240
REMARK   95  A    between atoms: _239  and  _242
REMARK   96  A    between atoms: _242  and  _243
REMARK   97  A    between atoms: _246  and  _248
REMARK   98  A    between atoms: _248  and  _249
REMARK   99  A    between atoms: _248  and  _251
REMARK  100  A    between atoms: _251  and  _252
REMARK  101  A    between atoms: _252  and  _253
REMARK  102  A    between atoms: _253  and  _254
REMARK  103  A    between atoms: _263  and  _265
REMARK  104  A    between atoms: _265  and  _266
REMARK  105  A    between atoms: _265  and  _268
REMARK  106  A    between atoms: _268  and  _269
REMARK  107  A    between atoms: _274  and  _276
REMARK  108  A    between atoms: _276  and  _277
REMARK  109  A    between atoms: _276  and  _279
REMARK  110  A    between atoms: _279  and  _280
REMARK  111  A    between atoms: _283  and  _285
REMARK  112  A    between atoms: _285  and  _286
REMARK  113  A    between atoms: _285  and  _288
REMARK  114  A    between atoms: _288  and  _289
REMARK  115  A    between atoms: _289  and  _290
REMARK  116  A    between atoms: _295  and  _297
REMARK  117  A    between atoms: _297  and  _298
REMARK  118  A    between atoms: _297  and  _300
REMARK  119  A    between atoms: _300  and  _301
REMARK  120  A    between atoms: _304  and  _306
REMARK  121  A    between atoms: _306  and  _307
REMARK  122  A    between atoms: _306  and  _309
REMARK  123  A    between atoms: _311  and  _313
REMARK  124  A    between atoms: _313  and  _314
REMARK  125  A    between atoms: _313  and  _316
REMARK  126  A    between atoms: _316  and  _317
REMARK  127  A    between atoms: _320  and  _322
REMARK  128  A    between atoms: _322  and  _323
REMARK  129  A    between atoms: _322  and  _325
REMARK  130  A    between atoms: _325  and  _326
REMARK  131  A    between atoms: _331  and  _333
REMARK  132  A    between atoms: _333  and  _334
REMARK  133  A    between atoms: _333  and  _336
REMARK  134  A    between atoms: _336  and  _337
REMARK  135  A    between atoms: _337  and  _338
REMARK  136  A    between atoms: _343  and  _345
REMARK  137  A    between atoms: _345  and  _346
REMARK  138  A    between atoms: _345  and  _348
REMARK  139  A    between atoms: _348  and  _349
REMARK  140  A    between atoms: _352  and  _354
REMARK  141  A    between atoms: _354  and  _355
REMARK  142  A    between atoms: _354  and  _357
REMARK  143  A    between atoms: _357  and  _358
REMARK  144  A    between atoms: _361  and  _363
REMARK  145  A    between atoms: _363  and  _364
REMARK  146  A    between atoms: _363  and  _366
REMARK  147  A    between atoms: _366  and  _367
REMARK  148  A    between atoms: _367  and  _368
REMARK  149  A    between atoms: _368  and  _369
REMARK  150  A    between atoms: _378  and  _380
REMARK  151  A    between atoms: _380  and  _381
REMARK  152  A    between atoms: _380  and  _383
REMARK  153  A    between atoms: _383  and  _384
REMARK  154  A    between atoms: _384  and  _385
REMARK  155  A    between atoms: _388  and  _390
REMARK  156  A    between atoms: _390  and  _391
REMARK  157  A    between atoms: _390  and  _393
REMARK  158  A    between atoms: _393  and  _394
REMARK  159  A    between atoms: _396  and  _398
REMARK  160  A    between atoms: _398  and  _399
REMARK  161  A    between atoms: _398  and  _401
REMARK  162  A    between atoms: _401  and  _402
REMARK  163  A    between atoms: _405  and  _407
REMARK  164  A    between atoms: _407  and  _408
REMARK  165  A    between atoms: _407  and  _410
REMARK  166  A    between atoms: _410  and  _411
REMARK  167  A    between atoms: _411  and  _412
REMARK  168  A    between atoms: _412  and  _413
REMARK  169  A    between atoms: _422  and  _424
REMARK  170  A    between atoms: _424  and  _425
REMARK  171  A    between atoms: _424  and  _427
REMARK  172  A    between atoms: _427  and  _428
REMARK  173  A    between atoms: _433  and  _435
REMARK  174  A    between atoms: _435  and  _436
REMARK  175  A    between atoms: _435  and  _438
REMARK  176  A    between atoms: _438  and  _439
REMARK  177  A    between atoms: _442  and  _444
REMARK  178  A    between atoms: _444  and  _445
REMARK  179  A    between atoms: _444  and  _447
REMARK  180  A    between atoms: _447  and  _448
REMARK  181  A    between atoms: _453  and  _454
REMARK  182  A    between atoms: _456  and  _458
REMARK  183  A    between atoms: _458  and  _459
REMARK  184  A    between atoms: _458  and  _461
REMARK  185  A    between atoms: _461  and  _462
REMARK  186  A    between atoms: _465  and  _467
REMARK  187  A    between atoms: _467  and  _468
REMARK  188  A    between atoms: _467  and  _470
REMARK  189  A    between atoms: _470  and  _471
REMARK  190  A    between atoms: _471  and  _472
REMARK  191  A    between atoms: _477  and  _479
REMARK  192  A    between atoms: _479  and  _480
REMARK  193  A    between atoms: _479  and  _482
REMARK  194  A    between atoms: _482  and  _483
REMARK  195  A    between atoms: _483  and  _484
REMARK  196  A    between atoms: _484  and  _485
REMARK  197  A    between atoms: _494  and  _496
REMARK  198  A    between atoms: _496  and  _497
REMARK  199  A    between atoms: _496  and  _499
REMARK  200  A    between atoms: _499  and  _500
REMARK  201  A    between atoms: _505  and  _506
REMARK  202  A    between atoms: _508  and  _510
REMARK  203  A    between atoms: _510  and  _511
REMARK  204  A    between atoms: _513  and  _515
REMARK  205  A    between atoms: _515  and  _516
REMARK  206  A    between atoms: _515  and  _518
REMARK  207  A    between atoms: _518  and  _519
REMARK  208  A    between atoms: _524  and  _526
REMARK  209  A    between atoms: _526  and  _527
REMARK  210  A    between atoms: _526  and  _529
REMARK  211  A    between atoms: _529  and  _530
REMARK  212  A    between atoms: _530  and  _531
REMARK  213  A    between atoms: _536  and  _538
REMARK  214  A    between atoms: _538  and  _539
REMARK  215  A    between atoms: _538  and  _541
REMARK  216  A    between atoms: _541  and  _542
REMARK  217  A    between atoms: _548  and  _550
REMARK  218  A    between atoms: _550  and  _551
REMARK  219  A    between atoms: _554  and  _556
REMARK  220  A    between atoms: _556  and  _557
REMARK  221  A    between atoms: _556  and  _559
REMARK  222  A    between atoms: _559  and  _560
REMARK  223  A    between atoms: _565  and  _566
REMARK  224  A    between atoms: _568  and  _570
REMARK  225  A    between atoms: _570  and  _571
REMARK  226  A    between atoms: _570  and  _573
REMARK  227  A    between atoms: _573  and  _574
REMARK  228  A    between atoms: _579  and  _580
REMARK  229  A    between atoms: _582  and  _584
REMARK  230  A    between atoms: _584  and  _585
REMARK  231  A    between atoms: _584  and  _587
REMARK  232  A    between atoms: _587  and  _588
REMARK  233  A    between atoms: _591  and  _593
REMARK  234  A    between atoms: _593  and  _594
REMARK  235  A    between atoms: _593  and  _596
REMARK  236  A    between atoms: _596  and  _597
REMARK  237  A    between atoms: _607  and  _609
REMARK  238  A    between atoms: _609  and  _610
REMARK  239  A    between atoms: _613  and  _615
REMARK  240  A    between atoms: _615  and  _616
REMARK  241  A    between atoms: _619  and  _621
REMARK  242  A    between atoms: _621  and  _622
REMARK  243  A    between atoms: _621  and  _624
REMARK  244  A    between atoms: _624  and  _625
REMARK  245  A    between atoms: _625  and  _626
REMARK  246  A    between atoms: _631  and  _633
REMARK  247  A    between atoms: _633  and  _634
REMARK  248  A    between atoms: _633  and  _636
REMARK  249  A    between atoms: _636  and  _637
REMARK  250  A    between atoms: _640  and  _642
REMARK  251  A    between atoms: _642  and  _643
REMARK  252  A    between atoms: _642  and  _645
REMARK  253  A    between atoms: _645  and  _646
REMARK  254  A    between atoms: _649  and  _651
REMARK  255  A    between atoms: _651  and  _652
REMARK  256  A    between atoms: _651  and  _654
REMARK  257  A    between atoms: _654  and  _655
REMARK  258  A    between atoms: _655  and  _656
REMARK  259  A    between atoms: _661  and  _663
REMARK  260  A    between atoms: _663  and  _664
REMARK  261  A    between atoms: _663  and  _666
REMARK  262  A    between atoms: _666  and  _667
REMARK  263  A    between atoms: _667  and  _668
REMARK  264  A    between atoms: _668  and  _669
REMARK  265  A    between atoms: _678  and  _680
REMARK  266  A    between atoms: _680  and  _681
REMARK  267  A    between atoms: _680  and  _683
REMARK  268  A    between atoms: _683  and  _684
REMARK  269  A    between atoms: _684  and  _685
REMARK  270  A    between atoms: _685  and  _686
REMARK  271  A    between atoms: _686  and  _687
REMARK  272  A    between atoms: _691  and  _693
REMARK  273  A    between atoms: _693  and  _694
REMARK  274  A    between atoms: _693  and  _696
REMARK  275  A    between atoms: _696  and  _697
REMARK  276  A    between atoms: _707  and  _709
REMARK  277  A    between atoms: _709  and  _710
REMARK  278  A    between atoms: _713  and  _715
REMARK  279  A    between atoms: _715  and  _716
REMARK  280  A    between atoms: _719  and  _721
REMARK  281  A    between atoms: _721  and  _722
REMARK  282  A    between atoms: _721  and  _724
REMARK  283  A    between atoms: _724  and  _725
REMARK  284  A    between atoms: _725  and  _726
REMARK  285  A    between atoms: _726  and  _727
REMARK  286  A    between atoms: _736  and  _738
REMARK  287  A    between atoms: _738  and  _739
REMARK  288  A    between atoms: _738  and  _741
REMARK  289  A    between atoms: _744  and  _746
REMARK  290  A    between atoms: _746  and  _747
REMARK  291  A    between atoms: _750  and  _752
REMARK  292  A    between atoms: _752  and  _753
REMARK  293  A    between atoms: _752  and  _755
REMARK  294  A    between atoms: _755  and  _756
REMARK  295  A    between atoms: _756  and  _757
REMARK  296  A    between atoms: _760  and  _762
REMARK  297  A    between atoms: _762  and  _763
REMARK  298  A    between atoms: _762  and  _765
REMARK  299  A    between atoms: _765  and  _766
REMARK  300  A    between atoms: _766  and  _767
REMARK  301  A    between atoms: _772  and  _774
REMARK  302  A    between atoms: _774  and  _775
REMARK  303  A    between atoms: _774  and  _777
REMARK  304  A    between atoms: _777  and  _778
REMARK  305  A    between atoms: _781  and  _783
REMARK  306  A    between atoms: _783  and  _784
REMARK  307  A    between atoms: _783  and  _786
REMARK  308  A    between atoms: _786  and  _787
REMARK  309  A    between atoms: _787  and  _788
REMARK  310  A    between atoms: _788  and  _789
REMARK  311  A    between atoms: _798  and  _800
REMARK  312  A    between atoms: _800  and  _801
REMARK  313  A    between atoms: _800  and  _803
REMARK  314  A    between atoms: _803  and  _804
REMARK  315  A    between atoms: _807  and  _809
REMARK  316  A    between atoms: _809  and  _810
REMARK  317  A    between atoms: _809  and  _812
REMARK  318  A    between atoms: _812  and  _813
REMARK  319  A    between atoms: _818  and  _819
REMARK  320  A    between atoms: _821  and  _823
REMARK  321  A    between atoms: _823  and  _824
REMARK  322  A    between atoms: _823  and  _826
REMARK  323  A    between atoms: _826  and  _827
REMARK  324  A    between atoms: _830  and  _832
REMARK  325  A    between atoms: _832  and  _833
REMARK  326  A    between atoms: _832  and  _835
REMARK  327  A    between atoms: _835  and  _836
REMARK  328  A    between atoms: _839  and  _841
REMARK  329  A    between atoms: _841  and  _842
REMARK  330  A    between atoms: _841  and  _844
REMARK  331  A    between atoms: _846  and  _848
REMARK  332  A    between atoms: _848  and  _849
REMARK  333  A    between atoms: _848  and  _851
REMARK  334  A    between atoms: _854  and  _856
REMARK  335  A    between atoms: _856  and  _857
REMARK  336  A    between atoms: _856  and  _859
REMARK  337  A    between atoms: _859  and  _860
REMARK  338  A    between atoms: _860  and  _861
REMARK  339  A    between atoms: _864  and  _866
REMARK  340  A    between atoms: _866  and  _867
REMARK  341  A    between atoms: _866  and  _869
REMARK  342  A    between atoms: _869  and  _870
REMARK  343  A    between atoms: _880  and  _882
REMARK  344  A    between atoms: _882  and  _883
REMARK  345  A    between atoms: _882  and  _885
REMARK  346  A    between atoms: _885  and  _886
REMARK  347  A    between atoms: _889  and  _891
REMARK  348  A    between atoms: _891  and  _892
REMARK  349  A    between atoms: _891  and  _894
REMARK  350  A    between atoms: _894  and  _895
REMARK  351  A    between atoms: _900  and  _901
REMARK                            x       y       z     vdW  Elec       q    Type
REMARK                         _______ _______ _______ _____ _____    ______ ____
ROOT
ATOM      1  O   HOH     1       3.423  11.339  35.764  0.00  0.00    +0.000 OA
ENDROOT
TORSDOF 0
REMARK  Name = ../refined-set-2016/4o2c/4o2c_pocket.pdb
REMARK  351 active torsions:
REMARK  status: ('A' for Active; 'I' for Inactive)
REMARK    1  A    between atoms: _1  and  _3
REMARK    2  A    between atoms: _3  and  _4
REMARK    3  A    between atoms: _3  and  _6
REMARK    4  A    between atoms: _6  and  _7
REMARK    5  A    between atoms: _7  and  _8
REMARK    6  A    between atoms: _10  and  _12
REMARK    7  A    between atoms: _12  and  _13
REMARK    8  A    between atoms: _12  and  _15
REMARK    9  A    between atoms: _15  and  _16
REMARK   10  A    between atoms: _16  and  _17
REMARK   11  A    between atoms: _17  and  _18
REMARK   12  A    between atoms: _27  and  _29
REMARK   13  A    between atoms: _29  and  _30
REMARK   14  A    between atoms: _29  and  _32
REMARK   15  A    between atoms: _32  and  _33
REMARK   16  A    between atoms: _38  and  _39
REMARK   17  A    between atoms: _41  and  _43
REMARK   18  A    between atoms: _43  and  _44
REMARK   19  A    between atoms: _43  and  _46
REMARK   20  A    between atoms: _46  and  _47
REMARK   21  A    between atoms: _53  and  _55
REMARK   22  A    between atoms: _55  and  _56
REMARK   23  A    between atoms: _55  and  _58
REMARK   24  A    between atoms: _58  and  _59
REMARK   25  A    between atoms: _64  and  _65
REMARK   26  A    between atoms: _67  and  _69
REMARK   27  A    between atoms: _69  and  _70
REMARK   28  A    between atoms: _69  and  _72
REMARK   29  A    between atoms: _72  and  _73
REMARK   30  A    between atoms: _79  and  _81
REMARK   31  A    between atoms: _81  and  _82
REMARK   32  A    between atoms: _81  and  _84
REMARK   33  A    between atoms: _84  and  _85
REMARK   34  A    between atoms: _88  and  _90
REMARK   35  A    between atoms: _90  and  _91
REMARK   36  A    between atoms: _90  and  _93
REMARK   37  A    between atoms: _93  and  _94
REMARK   38  A    between atoms: _96  and  _98
REMARK   39  A    between atoms: _98  and  _99
REMARK   40  A    between atoms: _98  and  _101
REMARK   41  A    between atoms: _104  and  _106
REMARK   42  A    between atoms: _106  and  _107
REMARK   43  A    between atoms: _109  and  _111
REMARK   44  A    between atoms: _111  and  _112
REMARK   45  A    between atoms: _111  and  _114
REMARK   46  A    between atoms: _114  and  _115
REMARK   47  A    between atoms: _121  and  _123
REMARK   48  A    between atoms: _123  and  _124
REMARK   49  A    between atoms: _123  and  _126
REMARK   50  A    between atoms: _129  and  _131
REMARK   51  A    between atoms: _131  and  _132
REMARK   52  A    between atoms: _131  and  _134
REMARK   53  A    between atoms: _134  and  _135
REMARK   54  A    between atoms: _135  and  _136
REMARK   55  A    between atoms: _136  and  _137
REMARK   56  A    between atoms: _146  and  _148
REMARK   57  A    between atoms: _148  and  _149
REMARK   58  A    between atoms: _148  and  _151
REMARK   59  A    between atoms: _151  and  _152
REMARK   60  A    between atoms: _158  and  _160
REMARK   61  A    between atoms: _160  and  _161
REMARK   62  A    between atoms: _160  and  _163
REMARK   63  A    between atoms: _163  and  _164
REMARK   64  A    between atoms: _164  and  _165
REMARK   65  A    between atoms: _168  and  _170
REMARK   66  A    between atoms: _170  and  _171
REMARK   67  A    between atoms: _170  and  _173
REMARK   68  A    between atoms: _173  and  _174
REMARK   69  A    between atoms: _174  and  _175
REMARK   70  A    between atoms: _178  and  _180
REMARK   71  A    between atoms: _180  and  _181
REMARK   72  A    between atoms: _180  and  _183
REMARK   73  A    between atoms: _183  and  _184
REMARK   74  A    between atoms: _187  and  _189
REMARK   75  A    between atoms: _189  and  _190
REMARK   76  A    between atoms: _189  and  _192
REMARK   77  A    between atoms: _192  and  _193
REMARK   78  A    between atoms: _193  and  _194
REMARK   79  A    between atoms: _197  and  _199
REMARK   80  A    between atoms: _199  and  _200
REMARK   81  A    between atoms: _199  and  _202
REMARK   82  A    between atoms: _202  and  _203
REMARK   83  A    between atoms: _203  and  _204
REMARK   84  A    between atoms: _207  and  _209
REMARK   85  A    between atoms: _209  and  _210
REMARK   86  A    between atoms: _209  and  _212
REMARK   87  A    between atoms: _212  and  _213
REMARK   88  A    between atoms: _218  and  _219
REMARK   89  A    between atoms: _221  and  _223
REMARK   90  A    between atoms: _223  and  _224
REMARK   91  A    between atoms: _223  and  _226
REMARK   92  A    between atoms: _226  and  _227
REMARK   93  A    between atoms: _237  and  _239
REMARK   94  A    between atoms: _239  and  _240
REMARK   95  A    between atoms: _239  and  _242
REMARK   96  A    between atoms: _242  and  _243
REMARK   97  A    between atoms: _246  and  _248
REMARK   98  A    between atoms: _248  and  _249
REMARK   99  A    between atoms: _248  and  _251
REMARK  100  A    between atoms: _251  and  _252
REMARK  101  A    between atoms: _252  and  _253
REMARK  102  A    between atoms: _253  and  _254
REMARK  103  A    between atoms: _263  and  _265
REMARK  104  A    between atoms: _265  and  _266
REMARK  105  A    between atoms: _265  and  _268
REMARK  106  A    between atoms: _268  and  _269
REMARK  107  A    between atoms: _274  and  _276
REMARK  108  A    between atoms: _276  and  _277
REMARK  109  A    between atoms: _276  and  _279
REMARK  110  A    between atoms: _279  and  _280
REMARK  111  A    between atoms: _283  and  _285
REMARK  112  A    between atoms: _285  and  _286
REMARK  113  A    between atoms: _285  and  _288
REMARK  114  A    between atoms: _288  and  _289
REMARK  115  A    between atoms: _289  and  _290
REMARK  116  A    between atoms: _295  and  _297
REMARK  117  A    between atoms: _297  and  _298
REMARK  118  A    between atoms: _297  and  _300
REMARK  119  A    between atoms: _300  and  _301
REMARK  120  A    between atoms: _304  and  _306
REMARK  121  A    between atoms: _306  and  _307
REMARK  122  A    between atoms: _306  and  _309
REMARK  123  A    between atoms: _311  and  _313
REMARK  124  A    between atoms: _313  and  _314
REMARK  125  A    between atoms: _313  and  _316
REMARK  126  A    between atoms: _316  and  _317
REMARK  127  A    between atoms: _320  and  _322
REMARK  128  A    between atoms: _322  and  _323
REMARK  129  A    between atoms: _322  and  _325
REMARK  130  A    between atoms: _325  and  _326
REMARK  131  A    between atoms: _331  and  _333
REMARK  132  A    between atoms: _333  and  _334
REMARK  133  A    between atoms: _333  and  _336
REMARK  134  A    between atoms: _336  and  _337
REMARK  135  A    between atoms: _337  and  _338
REMARK  136  A    between atoms: _343  and  _345
REMARK  137  A    between atoms: _345  and  _346
REMARK  138  A    between atoms: _345  and  _348
REMARK  139  A    between atoms: _348  and  _349
REMARK  140  A    between atoms: _352  and  _354
REMARK  141  A    between atoms: _354  and  _355
REMARK  142  A    between atoms: _354  and  _357
REMARK  143  A    between atoms: _357  and  _358
REMARK  144  A    between atoms: _361  and  _363
REMARK  145  A    between atoms: _363  and  _364
REMARK  146  A    between atoms: _363  and  _366
REMARK  147  A    between atoms: _366  and  _367
REMARK  148  A    between atoms: _367  and  _368
REMARK  149  A    between atoms: _368  and  _369
REMARK  150  A    between atoms: _378  and  _380
REMARK  151  A    between atoms: _380  and  _381
REMARK  152  A    between atoms: _380  and  _383
REMARK  153  A    between atoms: _383  and  _384
REMARK  154  A    between atoms: _384  and  _385
REMARK  155  A    between atoms: _388  and  _390
REMARK  156  A    between atoms: _390  and  _391
REMARK  157  A    between atoms: _390  and  _393
REMARK  158  A    between atoms: _393  and  _394
REMARK  159  A    between atoms: _396  and  _398
REMARK  160  A    between atoms: _398  and  _399
REMARK  161  A    between atoms: _398  and  _401
REMARK  162  A    between atoms: _401  and  _402
REMARK  163  A    between atoms: _405  and  _407
REMARK  164  A    between atoms: _407  and  _408
REMARK  165  A    between atoms: _407  and  _410
REMARK  166  A    between atoms: _410  and  _411
REMARK  167  A    between atoms: _411  and  _412
REMARK  168  A    between atoms: _412  and  _413
REMARK  169  A    between atoms: _422  and  _424
REMARK  170  A    between atoms: _424  and  _425
REMARK  171  A    between atoms: _424  and  _427
REMARK  172  A    between atoms: _427  and  _428
REMARK  173  A    between atoms: _433  and  _435
REMARK  174  A    between atoms: _435  and  _436
REMARK  175  A    between atoms: _435  and  _438
REMARK  176  A    between atoms: _438  and  _439
REMARK  177  A    between atoms: _442  and  _444
REMARK  178  A    between atoms: _444  and  _445
REMARK  179  A    between atoms: _444  and  _447
REMARK  180  A    between atoms: _447  and  _448
REMARK  181  A    between atoms: _453  and  _454
REMARK  182  A    between atoms: _456  and  _458
REMARK  183  A    between atoms: _458  and  _459
REMARK  184  A    between atoms: _458  and  _461
REMARK  185  A    between atoms: _461  and  _462
REMARK  186  A    between atoms: _465  and  _467
REMARK  187  A    between atoms: _467  and  _468
REMARK  188  A    between atoms: _467  and  _470
REMARK  189  A    between atoms: _470  and  _471
REMARK  190  A    between atoms: _471  and  _472
REMARK  191  A    between atoms: _477  and  _479
REMARK  192  A    between atoms: _479  and  _480
REMARK  193  A    between atoms: _479  and  _482
REMARK  194  A    between atoms: _482  and  _483
REMARK  195  A    between atoms: _483  and  _484
REMARK  196  A    between atoms: _484  and  _485
REMARK  197  A    between atoms: _494  and  _496
REMARK  198  A    between atoms: _496  and  _497
REMARK  199  A    between atoms: _496  and  _499
REMARK  200  A    between atoms: _499  and  _500
REMARK  201  A    between atoms: _505  and  _506
REMARK  202  A    between atoms: _508  and  _510
REMARK  203  A    between atoms: _510  and  _511
REMARK  204  A    between atoms: _513  and  _515
REMARK  205  A    between atoms: _515  and  _516
REMARK  206  A    between atoms: _515  and  _518
REMARK  207  A    between atoms: _518  and  _519
REMARK  208  A    between atoms: _524  and  _526
REMARK  209  A    between atoms: _526  and  _527
REMARK  210  A    between atoms: _526  and  _529
REMARK  211  A    between atoms: _529  and  _530
REMARK  212  A    between atoms: _530  and  _531
REMARK  213  A    between atoms: _536  and  _538
REMARK  214  A    between atoms: _538  and  _539
REMARK  215  A    between atoms: _538  and  _541
REMARK  216  A    between atoms: _541  and  _542
REMARK  217  A    between atoms: _548  and  _550
REMARK  218  A    between atoms: _550  and  _551
REMARK  219  A    between atoms: _554  and  _556
REMARK  220  A    between atoms: _556  and  _557
REMARK  221  A    between atoms: _556  and  _559
REMARK  222  A    between atoms: _559  and  _560
REMARK  223  A    between atoms: _565  and  _566
REMARK  224  A    between atoms: _568  and  _570
REMARK  225  A    between atoms: _570  and  _571
REMARK  226  A    between atoms: _570  and  _573
REMARK  227  A    between atoms: _573  and  _574
REMARK  228  A    between atoms: _579  and  _580
REMARK  229  A    between atoms: _582  and  _584
REMARK  230  A    between atoms: _584  and  _585
REMARK  231  A    between atoms: _584  and  _587
REMARK  232  A    between atoms: _587  and  _588
REMARK  233  A    between atoms: _591  and  _593
REMARK  234  A    between atoms: _593  and  _594
REMARK  235  A    between atoms: _593  and  _596
REMARK  236  A    between atoms: _596  and  _597
REMARK  237  A    between atoms: _607  and  _609
REMARK  238  A    between atoms: _609  and  _610
REMARK  239  A    between atoms: _613  and  _615
REMARK  240  A    between atoms: _615  and  _616
REMARK  241  A    between atoms: _619  and  _621
REMARK  242  A    between atoms: _621  and  _622
REMARK  243  A    between atoms: _621  and  _624
REMARK  244  A    between atoms: _624  and  _625
REMARK  245  A    between atoms: _625  and  _626
REMARK  246  A    between atoms: _631  and  _633
REMARK  247  A    between atoms: _633  and  _634
REMARK  248  A    between atoms: _633  and  _636
REMARK  249  A    between atoms: _636  and  _637
REMARK  250  A    between atoms: _640  and  _642
REMARK  251  A    between atoms: _642  and  _643
REMARK  252  A    between atoms: _642  and  _645
REMARK  253  A    between atoms: _645  and  _646
REMARK  254  A    between atoms: _649  and  _651
REMARK  255  A    between atoms: _651  and  _652
REMARK  256  A    between atoms: _651  and  _654
REMARK  257  A    between atoms: _654  and  _655
REMARK  258  A    between atoms: _655  and  _656
REMARK  259  A    between atoms: _661  and  _663
REMARK  260  A    between atoms: _663  and  _664
REMARK  261  A    between atoms: _663  and  _666
REMARK  262  A    between atoms: _666  and  _667
REMARK  263  A    between atoms: _667  and  _668
REMARK  264  A    between atoms: _668  and  _669
REMARK  265  A    between atoms: _678  and  _680
REMARK  266  A    between atoms: _680  and  _681
REMARK  267  A    between atoms: _680  and  _683
REMARK  268  A    between atoms: _683  and  _684
REMARK  269  A    between atoms: _684  and  _685
REMARK  270  A    between atoms: _685  and  _686
REMARK  271  A    between atoms: _686  and  _687
REMARK  272  A    between atoms: _691  and  _693
REMARK  273  A    between atoms: _693  and  _694
REMARK  274  A    between atoms: _693  and  _696
REMARK  275  A    between atoms: _696  and  _697
REMARK  276  A    between atoms: _707  and  _709
REMARK  277  A    between atoms: _709  and  _710
REMARK  278  A    between atoms: _713  and  _715
REMARK  279  A    between atoms: _715  and  _716
REMARK  280  A    between atoms: _719  and  _721
REMARK  281  A    between atoms: _721  and  _722
REMARK  282  A    between atoms: _721  and  _724
REMARK  283  A    between atoms: _724  and  _725
REMARK  284  A    between atoms: _725  and  _726
REMARK  285  A    between atoms: _726  and  _727
REMARK  286  A    between atoms: _736  and  _738
REMARK  287  A    between atoms: _738  and  _739
REMARK  288  A    between atoms: _738  and  _741
REMARK  289  A    between atoms: _744  and  _746
REMARK  290  A    between atoms: _746  and  _747
REMARK  291  A    between atoms: _750  and  _752
REMARK  292  A    between atoms: _752  and  _753
REMARK  293  A    between atoms: _752  and  _755
REMARK  294  A    between atoms: _755  and  _756
REMARK  295  A    between atoms: _756  and  _757
REMARK  296  A    between atoms: _760  and  _762
REMARK  297  A    between atoms: _762  and  _763
REMARK  298  A    between atoms: _762  and  _765
REMARK  299  A    between atoms: _765  and  _766
REMARK  300  A    between atoms: _766  and  _767
REMARK  301  A    between atoms: _772  and  _774
REMARK  302  A    between atoms: _774  and  _775
REMARK  303  A    between atoms: _774  and  _777
REMARK  304  A    between atoms: _777  and  _778
REMARK  305  A    between atoms: _781  and  _783
REMARK  306  A    between atoms: _783  and  _784
REMARK  307  A    between atoms: _783  and  _786
REMARK  308  A    between atoms: _786  and  _787
REMARK  309  A    between atoms: _787  and  _788
REMARK  310  A    between atoms: _788  and  _789
REMARK  311  A    between atoms: _798  and  _800
REMARK  312  A    between atoms: _800  and  _801
REMARK  313  A    between atoms: _800  and  _803
REMARK  314  A    between atoms: _803  and  _804
REMARK  315  A    between atoms: _807  and  _809
REMARK  316  A    between atoms: _809  and  _810
REMARK  317  A    between atoms: _809  and  _812
REMARK  318  A    between atoms: _812  and  _813
REMARK  319  A    between atoms: _818  and  _819
REMARK  320  A    between atoms: _821  and  _823
REMARK  321  A    between atoms: _823  and  _824
REMARK  322  A    between atoms: _823  and  _826
REMARK  323  A    between atoms: _826  and  _827
REMARK  324  A    between atoms: _830  and  _832
REMARK  325  A    between atoms: _832  and  _833
REMARK  326  A    between atoms: _832  and  _835
REMARK  327  A    between atoms: _835  and  _836
REMARK  328  A    between atoms: _839  and  _841
REMARK  329  A    between atoms: _841  and  _842
REMARK  330  A    between atoms: _841  and  _844
REMARK  331  A    between atoms: _846  and  _848
REMARK  332  A    between atoms: _848  and  _849
REMARK  333  A    between atoms: _848  and  _851
REMARK  334  A    between atoms: _854  and  _856
REMARK  335  A    between atoms: _856  and  _857
REMARK  336  A    between atoms: _856  and  _859
REMARK  337  A    between atoms: _859  and  _860
REMARK  338  A    between atoms: _860  and  _861
REMARK  339  A    between atoms: _864  and  _866
REMARK  340  A    between atoms: _866  and  _867
REMARK  341  A    between atoms: _866  and  _869
REMARK  342  A    between atoms: _869  and  _870
REMARK  343  A    between atoms: _880  and  _882
REMARK  344  A    between atoms: _882  and  _883
REMARK  345  A    between atoms: _882  and  _885
REMARK  346  A    between atoms: _885  and  _886
REMARK  347  A    between atoms: _889  and  _891
REMARK  348  A    between atoms: _891  and  _892
REMARK  349  A    between atoms: _891  and  _894
REMARK  350  A    between atoms: _894  and  _895
REMARK  351  A    between atoms: _900  and  _901
REMARK                            x       y       z     vdW  Elec       q    Type
REMARK                         _______ _______ _______ _____ _____    ______ ____
ROOT
ATOM      1  O   HOH     1      -3.166  14.251  33.397  0.00  0.00    +0.000 OA
ENDROOT
TORSDOF 0
REMARK  Name = ../refined-set-2016/4o2c/4o2c_pocket.pdb
REMARK  351 active torsions:
REMARK  status: ('A' for Active; 'I' for Inactive)
REMARK    1  A    between atoms: _1  and  _3
REMARK    2  A    between atoms: _3  and  _4
REMARK    3  A    between atoms: _3  and  _6
REMARK    4  A    between atoms: _6  and  _7
REMARK    5  A    between atoms: _7  and  _8
REMARK    6  A    between atoms: _10  and  _12
REMARK    7  A    between atoms: _12  and  _13
REMARK    8  A    between atoms: _12  and  _15
REMARK    9  A    between atoms: _15  and  _16
REMARK   10  A    between atoms: _16  and  _17
REMARK   11  A    between atoms: _17  and  _18
REMARK   12  A    between atoms: _27  and  _29
REMARK   13  A    between atoms: _29  and  _30
REMARK   14  A    between atoms: _29  and  _32
REMARK   15  A    between atoms: _32  and  _33
REMARK   16  A    between atoms: _38  and  _39
REMARK   17  A    between atoms: _41  and  _43
REMARK   18  A    between atoms: _43  and  _44
REMARK   19  A    between atoms: _43  and  _46
REMARK   20  A    between atoms: _46  and  _47
REMARK   21  A    between atoms: _53  and  _55
REMARK   22  A    between atoms: _55  and  _56
REMARK   23  A    between atoms: _55  and  _58
REMARK   24  A    between atoms: _58  and  _59
REMARK   25  A    between atoms: _64  and  _65
REMARK   26  A    between atoms: _67  and  _69
REMARK   27  A    between atoms: _69  and  _70
REMARK   28  A    between atoms: _69  and  _72
REMARK   29  A    between atoms: _72  and  _73
REMARK   30  A    between atoms: _79  and  _81
REMARK   31  A    between atoms: _81  and  _82
REMARK   32  A    between atoms: _81  and  _84
REMARK   33  A    between atoms: _84  and  _85
REMARK   34  A    between atoms: _88  and  _90
REMARK   35  A    between atoms: _90  and  _91
REMARK   36  A    between atoms: _90  and  _93
REMARK   37  A    between atoms: _93  and  _94
REMARK   38  A    between atoms: _96  and  _98
REMARK   39  A    between atoms: _98  and  _99
REMARK   40  A    between atoms: _98  and  _101
REMARK   41  A    between atoms: _104  and  _106
REMARK   42  A    between atoms: _106  and  _107
REMARK   43  A    between atoms: _109  and  _111
REMARK   44  A    between atoms: _111  and  _112
REMARK   45  A    between atoms: _111  and  _114
REMARK   46  A    between atoms: _114  and  _115
REMARK   47  A    between atoms: _121  and  _123
REMARK   48  A    between atoms: _123  and  _124
REMARK   49  A    between atoms: _123  and  _126
REMARK   50  A    between atoms: _129  and  _131
REMARK   51  A    between atoms: _131  and  _132
REMARK   52  A    between atoms: _131  and  _134
REMARK   53  A    between atoms: _134  and  _135
REMARK   54  A    between atoms: _135  and  _136
REMARK   55  A    between atoms: _136  and  _137
REMARK   56  A    between atoms: _146  and  _148
REMARK   57  A    between atoms: _148  and  _149
REMARK   58  A    between atoms: _148  and  _151
REMARK   59  A    between atoms: _151  and  _152
REMARK   60  A    between atoms: _158  and  _160
REMARK   61  A    between atoms: _160  and  _161
REMARK   62  A    between atoms: _160  and  _163
REMARK   63  A    between atoms: _163  and  _164
REMARK   64  A    between atoms: _164  and  _165
REMARK   65  A    between atoms: _168  and  _170
REMARK   66  A    between atoms: _170  and  _171
REMARK   67  A    between atoms: _170  and  _173
REMARK   68  A    between atoms: _173  and  _174
REMARK   69  A    between atoms: _174  and  _175
REMARK   70  A    between atoms: _178  and  _180
REMARK   71  A    between atoms: _180  and  _181
REMARK   72  A    between atoms: _180  and  _183
REMARK   73  A    between atoms: _183  and  _184
REMARK   74  A    between atoms: _187  and  _189
REMARK   75  A    between atoms: _189  and  _190
REMARK   76  A    between atoms: _189  and  _192
REMARK   77  A    between atoms: _192  and  _193
REMARK   78  A    between atoms: _193  and  _194
REMARK   79  A    between atoms: _197  and  _199
REMARK   80  A    between atoms: _199  and  _200
REMARK   81  A    between atoms: _199  and  _202
REMARK   82  A    between atoms: _202  and  _203
REMARK   83  A    between atoms: _203  and  _204
REMARK   84  A    between atoms: _207  and  _209
REMARK   85  A    between atoms: _209  and  _210
REMARK   86  A    between atoms: _209  and  _212
REMARK   87  A    between atoms: _212  and  _213
REMARK   88  A    between atoms: _218  and  _219
REMARK   89  A    between atoms: _221  and  _223
REMARK   90  A    between atoms: _223  and  _224
REMARK   91  A    between atoms: _223  and  _226
REMARK   92  A    between atoms: _226  and  _227
REMARK   93  A    between atoms: _237  and  _239
REMARK   94  A    between atoms: _239  and  _240
REMARK   95  A    between atoms: _239  and  _242
REMARK   96  A    between atoms: _242  and  _243
REMARK   97  A    between atoms: _246  and  _248
REMARK   98  A    between atoms: _248  and  _249
REMARK   99  A    between atoms: _248  and  _251
REMARK  100  A    between atoms: _251  and  _252
REMARK  101  A    between atoms: _252  and  _253
REMARK  102  A    between atoms: _253  and  _254
REMARK  103  A    between atoms: _263  and  _265
REMARK  104  A    between atoms: _265  and  _266
REMARK  105  A    between atoms: _265  and  _268
REMARK  106  A    between atoms: _268  and  _269
REMARK  107  A    between atoms: _274  and  _276
REMARK  108  A    between atoms: _276  and  _277
REMARK  109  A    between atoms: _276  and  _279
REMARK  110  A    between atoms: _279  and  _280
REMARK  111  A    between atoms: _283  and  _285
REMARK  112  A    between atoms: _285  and  _286
REMARK  113  A    between atoms: _285  and  _288
REMARK  114  A    between atoms: _288  and  _289
REMARK  115  A    between atoms: _289  and  _290
REMARK  116  A    between atoms: _295  and  _297
REMARK  117  A    between atoms: _297  and  _298
REMARK  118  A    between atoms: _297  and  _300
REMARK  119  A    between atoms: _300  and  _301
REMARK  120  A    between atoms: _304  and  _306
REMARK  121  A    between atoms: _306  and  _307
REMARK  122  A    between atoms: _306  and  _309
REMARK  123  A    between atoms: _311  and  _313
REMARK  124  A    between atoms: _313  and  _314
REMARK  125  A    between atoms: _313  and  _316
REMARK  126  A    between atoms: _316  and  _317
REMARK  127  A    between atoms: _320  and  _322
REMARK  128  A    between atoms: _322  and  _323
REMARK  129  A    between atoms: _322  and  _325
REMARK  130  A    between atoms: _325  and  _326
REMARK  131  A    between atoms: _331  and  _333
REMARK  132  A    between atoms: _333  and  _334
REMARK  133  A    between atoms: _333  and  _336
REMARK  134  A    between atoms: _336  and  _337
REMARK  135  A    between atoms: _337  and  _338
REMARK  136  A    between atoms: _343  and  _345
REMARK  137  A    between atoms: _345  and  _346
REMARK  138  A    between atoms: _345  and  _348
REMARK  139  A    between atoms: _348  and  _349
REMARK  140  A    between atoms: _352  and  _354
REMARK  141  A    between atoms: _354  and  _355
REMARK  142  A    between atoms: _354  and  _357
REMARK  143  A    between atoms: _357  and  _358
REMARK  144  A    between atoms: _361  and  _363
REMARK  145  A    between atoms: _363  and  _364
REMARK  146  A    between atoms: _363  and  _366
REMARK  147  A    between atoms: _366  and  _367
REMARK  148  A    between atoms: _367  and  _368
REMARK  149  A    between atoms: _368  and  _369
REMARK  150  A    between atoms: _378  and  _380
REMARK  151  A    between atoms: _380  and  _381
REMARK  152  A    between atoms: _380  and  _383
REMARK  153  A    between atoms: _383  and  _384
REMARK  154  A    between atoms: _384  and  _385
REMARK  155  A    between atoms: _388  and  _390
REMARK  156  A    between atoms: _390  and  _391
REMARK  157  A    between atoms: _390  and  _393
REMARK  158  A    between atoms: _393  and  _394
REMARK  159  A    between atoms: _396  and  _398
REMARK  160  A    between atoms: _398  and  _399
REMARK  161  A    between atoms: _398  and  _401
REMARK  162  A    between atoms: _401  and  _402
REMARK  163  A    between atoms: _405  and  _407
REMARK  164  A    between atoms: _407  and  _408
REMARK  165  A    between atoms: _407  and  _410
REMARK  166  A    between atoms: _410  and  _411
REMARK  167  A    between atoms: _411  and  _412
REMARK  168  A    between atoms: _412  and  _413
REMARK  169  A    between atoms: _422  and  _424
REMARK  170  A    between atoms: _424  and  _425
REMARK  171  A    between atoms: _424  and  _427
REMARK  172  A    between atoms: _427  and  _428
REMARK  173  A    between atoms: _433  and  _435
REMARK  174  A    between atoms: _435  and  _436
REMARK  175  A    between atoms: _435  and  _438
REMARK  176  A    between atoms: _438  and  _439
REMARK  177  A    between atoms: _442  and  _444
REMARK  178  A    between atoms: _444  and  _445
REMARK  179  A    between atoms: _444  and  _447
REMARK  180  A    between atoms: _447  and  _448
REMARK  181  A    between atoms: _453  and  _454
REMARK  182  A    between atoms: _456  and  _458
REMARK  183  A    between atoms: _458  and  _459
REMARK  184  A    between atoms: _458  and  _461
REMARK  185  A    between atoms: _461  and  _462
REMARK  186  A    between atoms: _465  and  _467
REMARK  187  A    between atoms: _467  and  _468
REMARK  188  A    between atoms: _467  and  _470
REMARK  189  A    between atoms: _470  and  _471
REMARK  190  A    between atoms: _471  and  _472
REMARK  191  A    between atoms: _477  and  _479
REMARK  192  A    between atoms: _479  and  _480
REMARK  193  A    between atoms: _479  and  _482
REMARK  194  A    between atoms: _482  and  _483
REMARK  195  A    between atoms: _483  and  _484
REMARK  196  A    between atoms: _484  and  _485
REMARK  197  A    between atoms: _494  and  _496
REMARK  198  A    between atoms: _496  and  _497
REMARK  199  A    between atoms: _496  and  _499
REMARK  200  A    between atoms: _499  and  _500
REMARK  201  A    between atoms: _505  and  _506
REMARK  202  A    between atoms: _508  and  _510
REMARK  203  A    between atoms: _510  and  _511
REMARK  204  A    between atoms: _513  and  _515
REMARK  205  A    between atoms: _515  and  _516
REMARK  206  A    between atoms: _515  and  _518
REMARK  207  A    between atoms: _518  and  _519
REMARK  208  A    between atoms: _524  and  _526
REMARK  209  A    between atoms: _526  and  _527
REMARK  210  A    between atoms: _526  and  _529
REMARK  211  A    between atoms: _529  and  _530
REMARK  212  A    between atoms: _530  and  _531
REMARK  213  A    between atoms: _536  and  _538
REMARK  214  A    between atoms: _538  and  _539
REMARK  215  A    between atoms: _538  and  _541
REMARK  216  A    between atoms: _541  and  _542
REMARK  217  A    between atoms: _548  and  _550
REMARK  218  A    between atoms: _550  and  _551
REMARK  219  A    between atoms: _554  and  _556
REMARK  220  A    between atoms: _556  and  _557
REMARK  221  A    between atoms: _556  and  _559
REMARK  222  A    between atoms: _559  and  _560
REMARK  223  A    between atoms: _565  and  _566
REMARK  224  A    between atoms: _568  and  _570
REMARK  225  A    between atoms: _570  and  _571
REMARK  226  A    between atoms: _570  and  _573
REMARK  227  A    between atoms: _573  and  _574
REMARK  228  A    between atoms: _579  and  _580
REMARK  229  A    between atoms: _582  and  _584
REMARK  230  A    between atoms: _584  and  _585
REMARK  231  A    between atoms: _584  and  _587
REMARK  232  A    between atoms: _587  and  _588
REMARK  233  A    between atoms: _591  and  _593
REMARK  234  A    between atoms: _593  and  _594
REMARK  235  A    between atoms: _593  and  _596
REMARK  236  A    between atoms: _596  and  _597
REMARK  237  A    between atoms: _607  and  _609
REMARK  238  A    between atoms: _609  and  _610
REMARK  239  A    between atoms: _613  and  _615
REMARK  240  A    between atoms: _615  and  _616
REMARK  241  A    between atoms: _619  and  _621
REMARK  242  A    between atoms: _621  and  _622
REMARK  243  A    between atoms: _621  and  _624
REMARK  244  A    between atoms: _624  and  _625
REMARK  245  A    between atoms: _625  and  _626
REMARK  246  A    between atoms: _631  and  _633
REMARK  247  A    between atoms: _633  and  _634
REMARK  248  A    between atoms: _633  and  _636
REMARK  249  A    between atoms: _636  and  _637
REMARK  250  A    between atoms: _640  and  _642
REMARK  251  A    between atoms: _642  and  _643
REMARK  252  A    between atoms: _642  and  _645
REMARK  253  A    between atoms: _645  and  _646
REMARK  254  A    between atoms: _649  and  _651
REMARK  255  A    between atoms: _651  and  _652
REMARK  256  A    between atoms: _651  and  _654
REMARK  257  A    between atoms: _654  and  _655
REMARK  258  A    between atoms: _655  and  _656
REMARK  259  A    between atoms: _661  and  _663
REMARK  260  A    between atoms: _663  and  _664
REMARK  261  A    between atoms: _663  and  _666
REMARK  262  A    between atoms: _666  and  _667
REMARK  263  A    between atoms: _667  and  _668
REMARK  264  A    between atoms: _668  and  _669
REMARK  265  A    between atoms: _678  and  _680
REMARK  266  A    between atoms: _680  and  _681
REMARK  267  A    between atoms: _680  and  _683
REMARK  268  A    between atoms: _683  and  _684
REMARK  269  A    between atoms: _684  and  _685
REMARK  270  A    between atoms: _685  and  _686
REMARK  271  A    between atoms: _686  and  _687
REMARK  272  A    between atoms: _691  and  _693
REMARK  273  A    between atoms: _693  and  _694
REMARK  274  A    between atoms: _693  and  _696
REMARK  275  A    between atoms: _696  and  _697
REMARK  276  A    between atoms: _707  and  _709
REMARK  277  A    between atoms: _709  and  _710
REMARK  278  A    between atoms: _713  and  _715
REMARK  279  A    between atoms: _715  and  _716
REMARK  280  A    between atoms: _719  and  _721
REMARK  281  A    between atoms: _721  and  _722
REMARK  282  A    between atoms: _721  and  _724
REMARK  283  A    between atoms: _724  and  _725
REMARK  284  A    between atoms: _725  and  _726
REMARK  285  A    between atoms: _726  and  _727
REMARK  286  A    between atoms: _736  and  _738
REMARK  287  A    between atoms: _738  and  _739
REMARK  288  A    between atoms: _738  and  _741
REMARK  289  A    between atoms: _744  and  _746
REMARK  290  A    between atoms: _746  and  _747
REMARK  291  A    between atoms: _750  and  _752
REMARK  292  A    between atoms: _752  and  _753
REMARK  293  A    between atoms: _752  and  _755
REMARK  294  A    between atoms: _755  and  _756
REMARK  295  A    between atoms: _756  and  _757
REMARK  296  A    between atoms: _760  and  _762
REMARK  297  A    between atoms: _762  and  _763
REMARK  298  A    between atoms: _762  and  _765
REMARK  299  A    between atoms: _765  and  _766
REMARK  300  A    between atoms: _766  and  _767
REMARK  301  A    between atoms: _772  and  _774
REMARK  302  A    between atoms: _774  and  _775
REMARK  303  A    between atoms: _774  and  _777
REMARK  304  A    between atoms: _777  and  _778
REMARK  305  A    between atoms: _781  and  _783
REMARK  306  A    between atoms: _783  and  _784
REMARK  307  A    between atoms: _783  and  _786
REMARK  308  A    between atoms: _786  and  _787
REMARK  309  A    between atoms: _787  and  _788
REMARK  310  A    between atoms: _788  and  _789
REMARK  311  A    between atoms: _798  and  _800
REMARK  312  A    between atoms: _800  and  _801
REMARK  313  A    between atoms: _800  and  _803
REMARK  314  A    between atoms: _803  and  _804
REMARK  315  A    between atoms: _807  and  _809
REMARK  316  A    between atoms: _809  and  _810
REMARK  317  A    between atoms: _809  and  _812
REMARK  318  A    between atoms: _812  and  _813
REMARK  319  A    between atoms: _818  and  _819
REMARK  320  A    between atoms: _821  and  _823
REMARK  321  A    between atoms: _823  and  _824
REMARK  322  A    between atoms: _823  and  _826
REMARK  323  A    between atoms: _826  and  _827
REMARK  324  A    between atoms: _830  and  _832
REMARK  325  A    between atoms: _832  and  _833
REMARK  326  A    between atoms: _832  and  _835
REMARK  327  A    between atoms: _835  and  _836
REMARK  328  A    between atoms: _839  and  _841
REMARK  329  A    between atoms: _841  and  _842
REMARK  330  A    between atoms: _841  and  _844
REMARK  331  A    between atoms: _846  and  _848
REMARK  332  A    between atoms: _848  and  _849
REMARK  333  A    between atoms: _848  and  _851
REMARK  334  A    between atoms: _854  and  _856
REMARK  335  A    between atoms: _856  and  _857
REMARK  336  A    between atoms: _856  and  _859
REMARK  337  A    between atoms: _859  and  _860
REMARK  338  A    between atoms: _860  and  _861
REMARK  339  A    between atoms: _864  and  _866
REMARK  340  A    between atoms: _866  and  _867
REMARK  341  A    between atoms: _866  and  _869
REMARK  342  A    between atoms: _869  and  _870
REMARK  343  A    between atoms: _880  and  _882
REMARK  344  A    between atoms: _882  and  _883
REMARK  345  A    between atoms: _882  and  _885
REMARK  346  A    between atoms: _885  and  _886
REMARK  347  A    between atoms: _889  and  _891
REMARK  348  A    between atoms: _891  and  _892
REMARK  349  A    between atoms: _891  and  _894
REMARK  350  A    between atoms: _894  and  _895
REMARK  351  A    between atoms: _900  and  _901
REMARK                            x       y       z     vdW  Elec       q    Type
REMARK                         _______ _______ _______ _____ _____    ______ ____
ROOT
ATOM      1  O   HOH     1       7.457  14.924  40.940  0.00  0.00    +0.000 OA
ENDROOT
TORSDOF 0
REMARK  Name = ../refined-set-2016/4o2c/4o2c_pocket.pdb
REMARK  351 active torsions:
REMARK  status: ('A' for Active; 'I' for Inactive)
REMARK    1  A    between atoms: _1  and  _3
REMARK    2  A    between atoms: _3  and  _4
REMARK    3  A    between atoms: _3  and  _6
REMARK    4  A    between atoms: _6  and  _7
REMARK    5  A    between atoms: _7  and  _8
REMARK    6  A    between atoms: _10  and  _12
REMARK    7  A    between atoms: _12  and  _13
REMARK    8  A    between atoms: _12  and  _15
REMARK    9  A    between atoms: _15  and  _16
REMARK   10  A    between atoms: _16  and  _17
REMARK   11  A    between atoms: _17  and  _18
REMARK   12  A    between atoms: _27  and  _29
REMARK   13  A    between atoms: _29  and  _30
REMARK   14  A    between atoms: _29  and  _32
REMARK   15  A    between atoms: _32  and  _33
REMARK   16  A    between atoms: _38  and  _39
REMARK   17  A    between atoms: _41  and  _43
REMARK   18  A    between atoms: _43  and  _44
REMARK   19  A    between atoms: _43  and  _46
REMARK   20  A    between atoms: _46  and  _47
REMARK   21  A    between atoms: _53  and  _55
REMARK   22  A    between atoms: _55  and  _56
REMARK   23  A    between atoms: _55  and  _58
REMARK   24  A    between atoms: _58  and  _59
REMARK   25  A    between atoms: _64  and  _65
REMARK   26  A    between atoms: _67  and  _69
REMARK   27  A    between atoms: _69  and  _70
REMARK   28  A    between atoms: _69  and  _72
REMARK   29  A    between atoms: _72  and  _73
REMARK   30  A    between atoms: _79  and  _81
REMARK   31  A    between atoms: _81  and  _82
REMARK   32  A    between atoms: _81  and  _84
REMARK   33  A    between atoms: _84  and  _85
REMARK   34  A    between atoms: _88  and  _90
REMARK   35  A    between atoms: _90  and  _91
REMARK   36  A    between atoms: _90  and  _93
REMARK   37  A    between atoms: _93  and  _94
REMARK   38  A    between atoms: _96  and  _98
REMARK   39  A    between atoms: _98  and  _99
REMARK   40  A    between atoms: _98  and  _101
REMARK   41  A    between atoms: _104  and  _106
REMARK   42  A    between atoms: _106  and  _107
REMARK   43  A    between atoms: _109  and  _111
REMARK   44  A    between atoms: _111  and  _112
REMARK   45  A    between atoms: _111  and  _114
REMARK   46  A    between atoms: _114  and  _115
REMARK   47  A    between atoms: _121  and  _123
REMARK   48  A    between atoms: _123  and  _124
REMARK   49  A    between atoms: _123  and  _126
REMARK   50  A    between atoms: _129  and  _131
REMARK   51  A    between atoms: _131  and  _132
REMARK   52  A    between atoms: _131  and  _134
REMARK   53  A    between atoms: _134  and  _135
REMARK   54  A    between atoms: _135  and  _136
REMARK   55  A    between atoms: _136  and  _137
REMARK   56  A    between atoms: _146  and  _148
REMARK   57  A    between atoms: _148  and  _149
REMARK   58  A    between atoms: _148  and  _151
REMARK   59  A    between atoms: _151  and  _152
REMARK   60  A    between atoms: _158  and  _160
REMARK   61  A    between atoms: _160  and  _161
REMARK   62  A    between atoms: _160  and  _163
REMARK   63  A    between atoms: _163  and  _164
REMARK   64  A    between atoms: _164  and  _165
REMARK   65  A    between atoms: _168  and  _170
REMARK   66  A    between atoms: _170  and  _171
REMARK   67  A    between atoms: _170  and  _173
REMARK   68  A    between atoms: _173  and  _174
REMARK   69  A    between atoms: _174  and  _175
REMARK   70  A    between atoms: _178  and  _180
REMARK   71  A    between atoms: _180  and  _181
REMARK   72  A    between atoms: _180  and  _183
REMARK   73  A    between atoms: _183  and  _184
REMARK   74  A    between atoms: _187  and  _189
REMARK   75  A    between atoms: _189  and  _190
REMARK   76  A    between atoms: _189  and  _192
REMARK   77  A    between atoms: _192  and  _193
REMARK   78  A    between atoms: _193  and  _194
REMARK   79  A    between atoms: _197  and  _199
REMARK   80  A    between atoms: _199  and  _200
REMARK   81  A    between atoms: _199  and  _202
REMARK   82  A    between atoms: _202  and  _203
REMARK   83  A    between atoms: _203  and  _204
REMARK   84  A    between atoms: _207  and  _209
REMARK   85  A    between atoms: _209  and  _210
REMARK   86  A    between atoms: _209  and  _212
REMARK   87  A    between atoms: _212  and  _213
REMARK   88  A    between atoms: _218  and  _219
REMARK   89  A    between atoms: _221  and  _223
REMARK   90  A    between atoms: _223  and  _224
REMARK   91  A    between atoms: _223  and  _226
REMARK   92  A    between atoms: _226  and  _227
REMARK   93  A    between atoms: _237  and  _239
REMARK   94  A    between atoms: _239  and  _240
REMARK   95  A    between atoms: _239  and  _242
REMARK   96  A    between atoms: _242  and  _243
REMARK   97  A    between atoms: _246  and  _248
REMARK   98  A    between atoms: _248  and  _249
REMARK   99  A    between atoms: _248  and  _251
REMARK  100  A    between atoms: _251  and  _252
REMARK  101  A    between atoms: _252  and  _253
REMARK  102  A    between atoms: _253  and  _254
REMARK  103  A    between atoms: _263  and  _265
REMARK  104  A    between atoms: _265  and  _266
REMARK  105  A    between atoms: _265  and  _268
REMARK  106  A    between atoms: _268  and  _269
REMARK  107  A    between atoms: _274  and  _276
REMARK  108  A    between atoms: _276  and  _277
REMARK  109  A    between atoms: _276  and  _279
REMARK  110  A    between atoms: _279  and  _280
REMARK  111  A    between atoms: _283  and  _285
REMARK  112  A    between atoms: _285  and  _286
REMARK  113  A    between atoms: _285  and  _288
REMARK  114  A    between atoms: _288  and  _289
REMARK  115  A    between atoms: _289  and  _290
REMARK  116  A    between atoms: _295  and  _297
REMARK  117  A    between atoms: _297  and  _298
REMARK  118  A    between atoms: _297  and  _300
REMARK  119  A    between atoms: _300  and  _301
REMARK  120  A    between atoms: _304  and  _306
REMARK  121  A    between atoms: _306  and  _307
REMARK  122  A    between atoms: _306  and  _309
REMARK  123  A    between atoms: _311  and  _313
REMARK  124  A    between atoms: _313  and  _314
REMARK  125  A    between atoms: _313  and  _316
REMARK  126  A    between atoms: _316  and  _317
REMARK  127  A    between atoms: _320  and  _322
REMARK  128  A    between atoms: _322  and  _323
REMARK  129  A    between atoms: _322  and  _325
REMARK  130  A    between atoms: _325  and  _326
REMARK  131  A    between atoms: _331  and  _333
REMARK  132  A    between atoms: _333  and  _334
REMARK  133  A    between atoms: _333  and  _336
REMARK  134  A    between atoms: _336  and  _337
REMARK  135  A    between atoms: _337  and  _338
REMARK  136  A    between atoms: _343  and  _345
REMARK  137  A    between atoms: _345  and  _346
REMARK  138  A    between atoms: _345  and  _348
REMARK  139  A    between atoms: _348  and  _349
REMARK  140  A    between atoms: _352  and  _354
REMARK  141  A    between atoms: _354  and  _355
REMARK  142  A    between atoms: _354  and  _357
REMARK  143  A    between atoms: _357  and  _358
REMARK  144  A    between atoms: _361  and  _363
REMARK  145  A    between atoms: _363  and  _364
REMARK  146  A    between atoms: _363  and  _366
REMARK  147  A    between atoms: _366  and  _367
REMARK  148  A    between atoms: _367  and  _368
REMARK  149  A    between atoms: _368  and  _369
REMARK  150  A    between atoms: _378  and  _380
REMARK  151  A    between atoms: _380  and  _381
REMARK  152  A    between atoms: _380  and  _383
REMARK  153  A    between atoms: _383  and  _384
REMARK  154  A    between atoms: _384  and  _385
REMARK  155  A    between atoms: _388  and  _390
REMARK  156  A    between atoms: _390  and  _391
REMARK  157  A    between atoms: _390  and  _393
REMARK  158  A    between atoms: _393  and  _394
REMARK  159  A    between atoms: _396  and  _398
REMARK  160  A    between atoms: _398  and  _399
REMARK  161  A    between atoms: _398  and  _401
REMARK  162  A    between atoms: _401  and  _402
REMARK  163  A    between atoms: _405  and  _407
REMARK  164  A    between atoms: _407  and  _408
REMARK  165  A    between atoms: _407  and  _410
REMARK  166  A    between atoms: _410  and  _411
REMARK  167  A    between atoms: _411  and  _412
REMARK  168  A    between atoms: _412  and  _413
REMARK  169  A    between atoms: _422  and  _424
REMARK  170  A    between atoms: _424  and  _425
REMARK  171  A    between atoms: _424  and  _427
REMARK  172  A    between atoms: _427  and  _428
REMARK  173  A    between atoms: _433  and  _435
REMARK  174  A    between atoms: _435  and  _436
REMARK  175  A    between atoms: _435  and  _438
REMARK  176  A    between atoms: _438  and  _439
REMARK  177  A    between atoms: _442  and  _444
REMARK  178  A    between atoms: _444  and  _445
REMARK  179  A    between atoms: _444  and  _447
REMARK  180  A    between atoms: _447  and  _448
REMARK  181  A    between atoms: _453  and  _454
REMARK  182  A    between atoms: _456  and  _458
REMARK  183  A    between atoms: _458  and  _459
REMARK  184  A    between atoms: _458  and  _461
REMARK  185  A    between atoms: _461  and  _462
REMARK  186  A    between atoms: _465  and  _467
REMARK  187  A    between atoms: _467  and  _468
REMARK  188  A    between atoms: _467  and  _470
REMARK  189  A    between atoms: _470  and  _471
REMARK  190  A    between atoms: _471  and  _472
REMARK  191  A    between atoms: _477  and  _479
REMARK  192  A    between atoms: _479  and  _480
REMARK  193  A    between atoms: _479  and  _482
REMARK  194  A    between atoms: _482  and  _483
REMARK  195  A    between atoms: _483  and  _484
REMARK  196  A    between atoms: _484  and  _485
REMARK  197  A    between atoms: _494  and  _496
REMARK  198  A    between atoms: _496  and  _497
REMARK  199  A    between atoms: _496  and  _499
REMARK  200  A    between atoms: _499  and  _500
REMARK  201  A    between atoms: _505  and  _506
REMARK  202  A    between atoms: _508  and  _510
REMARK  203  A    between atoms: _510  and  _511
REMARK  204  A    between atoms: _513  and  _515
REMARK  205  A    between atoms: _515  and  _516
REMARK  206  A    between atoms: _515  and  _518
REMARK  207  A    between atoms: _518  and  _519
REMARK  208  A    between atoms: _524  and  _526
REMARK  209  A    between atoms: _526  and  _527
REMARK  210  A    between atoms: _526  and  _529
REMARK  211  A    between atoms: _529  and  _530
REMARK  212  A    between atoms: _530  and  _531
REMARK  213  A    between atoms: _536  and  _538
REMARK  214  A    between atoms: _538  and  _539
REMARK  215  A    between atoms: _538  and  _541
REMARK  216  A    between atoms: _541  and  _542
REMARK  217  A    between atoms: _548  and  _550
REMARK  218  A    between atoms: _550  and  _551
REMARK  219  A    between atoms: _554  and  _556
REMARK  220  A    between atoms: _556  and  _557
REMARK  221  A    between atoms: _556  and  _559
REMARK  222  A    between atoms: _559  and  _560
REMARK  223  A    between atoms: _565  and  _566
REMARK  224  A    between atoms: _568  and  _570
REMARK  225  A    between atoms: _570  and  _571
REMARK  226  A    between atoms: _570  and  _573
REMARK  227  A    between atoms: _573  and  _574
REMARK  228  A    between atoms: _579  and  _580
REMARK  229  A    between atoms: _582  and  _584
REMARK  230  A    between atoms: _584  and  _585
REMARK  231  A    between atoms: _584  and  _587
REMARK  232  A    between atoms: _587  and  _588
REMARK  233  A    between atoms: _591  and  _593
REMARK  234  A    between atoms: _593  and  _594
REMARK  235  A    between atoms: _593  and  _596
REMARK  236  A    between atoms: _596  and  _597
REMARK  237  A    between atoms: _607  and  _609
REMARK  238  A    between atoms: _609  and  _610
REMARK  239  A    between atoms: _613  and  _615
REMARK  240  A    between atoms: _615  and  _616
REMARK  241  A    between atoms: _619  and  _621
REMARK  242  A    between atoms: _621  and  _622
REMARK  243  A    between atoms: _621  and  _624
REMARK  244  A    between atoms: _624  and  _625
REMARK  245  A    between atoms: _625  and  _626
REMARK  246  A    between atoms: _631  and  _633
REMARK  247  A    between atoms: _633  and  _634
REMARK  248  A    between atoms: _633  and  _636
REMARK  249  A    between atoms: _636  and  _637
REMARK  250  A    between atoms: _640  and  _642
REMARK  251  A    between atoms: _642  and  _643
REMARK  252  A    between atoms: _642  and  _645
REMARK  253  A    between atoms: _645  and  _646
REMARK  254  A    between atoms: _649  and  _651
REMARK  255  A    between atoms: _651  and  _652
REMARK  256  A    between atoms: _651  and  _654
REMARK  257  A    between atoms: _654  and  _655
REMARK  258  A    between atoms: _655  and  _656
REMARK  259  A    between atoms: _661  and  _663
REMARK  260  A    between atoms: _663  and  _664
REMARK  261  A    between atoms: _663  and  _666
REMARK  262  A    between atoms: _666  and  _667
REMARK  263  A    between atoms: _667  and  _668
REMARK  264  A    between atoms: _668  and  _669
REMARK  265  A    between atoms: _678  and  _680
REMARK  266  A    between atoms: _680  and  _681
REMARK  267  A    between atoms: _680  and  _683
REMARK  268  A    between atoms: _683  and  _684
REMARK  269  A    between atoms: _684  and  _685
REMARK  270  A    between atoms: _685  and  _686
REMARK  271  A    between atoms: _686  and  _687
REMARK  272  A    between atoms: _691  and  _693
REMARK  273  A    between atoms: _693  and  _694
REMARK  274  A    between atoms: _693  and  _696
REMARK  275  A    between atoms: _696  and  _697
REMARK  276  A    between atoms: _707  and  _709
REMARK  277  A    between atoms: _709  and  _710
REMARK  278  A    between atoms: _713  and  _715
REMARK  279  A    between atoms: _715  and  _716
REMARK  280  A    between atoms: _719  and  _721
REMARK  281  A    between atoms: _721  and  _722
REMARK  282  A    between atoms: _721  and  _724
REMARK  283  A    between atoms: _724  and  _725
REMARK  284  A    between atoms: _725  and  _726
REMARK  285  A    between atoms: _726  and  _727
REMARK  286  A    between atoms: _736  and  _738
REMARK  287  A    between atoms: _738  and  _739
REMARK  288  A    between atoms: _738  and  _741
REMARK  289  A    between atoms: _744  and  _746
REMARK  290  A    between atoms: _746  and  _747
REMARK  291  A    between atoms: _750  and  _752
REMARK  292  A    between atoms: _752  and  _753
REMARK  293  A    between atoms: _752  and  _755
REMARK  294  A    between atoms: _755  and  _756
REMARK  295  A    between atoms: _756  and  _757
REMARK  296  A    between atoms: _760  and  _762
REMARK  297  A    between atoms: _762  and  _763
REMARK  298  A    between atoms: _762  and  _765
REMARK  299  A    between atoms: _765  and  _766
REMARK  300  A    between atoms: _766  and  _767
REMARK  301  A    between atoms: _772  and  _774
REMARK  302  A    between atoms: _774  and  _775
REMARK  303  A    between atoms: _774  and  _777
REMARK  304  A    between atoms: _777  and  _778
REMARK  305  A    between atoms: _781  and  _783
REMARK  306  A    between atoms: _783  and  _784
REMARK  307  A    between atoms: _783  and  _786
REMARK  308  A    between atoms: _786  and  _787
REMARK  309  A    between atoms: _787  and  _788
REMARK  310  A    between atoms: _788  and  _789
REMARK  311  A    between atoms: _798  and  _800
REMARK  312  A    between atoms: _800  and  _801
REMARK  313  A    between atoms: _800  and  _803
REMARK  314  A    between atoms: _803  and  _804
REMARK  315  A    between atoms: _807  and  _809
REMARK  316  A    between atoms: _809  and  _810
REMARK  317  A    between atoms: _809  and  _812
REMARK  318  A    between atoms: _812  and  _813
REMARK  319  A    between atoms: _818  and  _819
REMARK  320  A    between atoms: _821  and  _823
REMARK  321  A    between atoms: _823  and  _824
REMARK  322  A    between atoms: _823  and  _826
REMARK  323  A    between atoms: _826  and  _827
REMARK  324  A    between atoms: _830  and  _832
REMARK  325  A    between atoms: _832  and  _833
REMARK  326  A    between atoms: _832  and  _835
REMARK  327  A    between atoms: _835  and  _836
REMARK  328  A    between atoms: _839  and  _841
REMARK  329  A    between atoms: _841  and  _842
REMARK  330  A    between atoms: _841  and  _844
REMARK  331  A    between atoms: _846  and  _848
REMARK  332  A    between atoms: _848  and  _849
REMARK  333  A    between atoms: _848  and  _851
REMARK  334  A    between atoms: _854  and  _856
REMARK  335  A    between atoms: _856  and  _857
REMARK  336  A    between atoms: _856  and  _859
REMARK  337  A    between atoms: _859  and  _860
REMARK  338  A    between atoms: _860  and  _861
REMARK  339  A    between atoms: _864  and  _866
REMARK  340  A    between atoms: _866  and  _867
REMARK  341  A    between atoms: _866  and  _869
REMARK  342  A    between atoms: _869  and  _870
REMARK  343  A    between atoms: _880  and  _882
REMARK  344  A    between atoms: _882  and  _883
REMARK  345  A    between atoms: _882  and  _885
REMARK  346  A    between atoms: _885  and  _886
REMARK  347  A    between atoms: _889  and  _891
REMARK  348  A    between atoms: _891  and  _892
REMARK  349  A    between atoms: _891  and  _894
REMARK  350  A    between atoms: _894  and  _895
REMARK  351  A    between atoms: _900  and  _901
REMARK                            x       y       z     vdW  Elec       q    Type
REMARK                         _______ _______ _______ _____ _____    ______ ____
ROOT
ATOM      1  O   HOH     1      -9.001  11.714  37.650  0.00  0.00    +0.000 OA
ENDROOT
TORSDOF 0
REMARK  Name = ../refined-set-2016/4o2c/4o2c_pocket.pdb
REMARK  351 active torsions:
REMARK  status: ('A' for Active; 'I' for Inactive)
REMARK    1  A    between atoms: _1  and  _3
REMARK    2  A    between atoms: _3  and  _4
REMARK    3  A    between atoms: _3  and  _6
REMARK    4  A    between atoms: _6  and  _7
REMARK    5  A    between atoms: _7  and  _8
REMARK    6  A    between atoms: _10  and  _12
REMARK    7  A    between atoms: _12  and  _13
REMARK    8  A    between atoms: _12  and  _15
REMARK    9  A    between atoms: _15  and  _16
REMARK   10  A    between atoms: _16  and  _17
REMARK   11  A    between atoms: _17  and  _18
REMARK   12  A    between atoms: _27  and  _29
REMARK   13  A    between atoms: _29  and  _30
REMARK   14  A    between atoms: _29  and  _32
REMARK   15  A    between atoms: _32  and  _33
REMARK   16  A    between atoms: _38  and  _39
REMARK   17  A    between atoms: _41  and  _43
REMARK   18  A    between atoms: _43  and  _44
REMARK   19  A    between atoms: _43  and  _46
REMARK   20  A    between atoms: _46  and  _47
REMARK   21  A    between atoms: _53  and  _55
REMARK   22  A    between atoms: _55  and  _56
REMARK   23  A    between atoms: _55  and  _58
REMARK   24  A    between atoms: _58  and  _59
REMARK   25  A    between atoms: _64  and  _65
REMARK   26  A    between atoms: _67  and  _69
REMARK   27  A    between atoms: _69  and  _70
REMARK   28  A    between atoms: _69  and  _72
REMARK   29  A    between atoms: _72  and  _73
REMARK   30  A    between atoms: _79  and  _81
REMARK   31  A    between atoms: _81  and  _82
REMARK   32  A    between atoms: _81  and  _84
REMARK   33  A    between atoms: _84  and  _85
REMARK   34  A    between atoms: _88  and  _90
REMARK   35  A    between atoms: _90  and  _91
REMARK   36  A    between atoms: _90  and  _93
REMARK   37  A    between atoms: _93  and  _94
REMARK   38  A    between atoms: _96  and  _98
REMARK   39  A    between atoms: _98  and  _99
REMARK   40  A    between atoms: _98  and  _101
REMARK   41  A    between atoms: _104  and  _106
REMARK   42  A    between atoms: _106  and  _107
REMARK   43  A    between atoms: _109  and  _111
REMARK   44  A    between atoms: _111  and  _112
REMARK   45  A    between atoms: _111  and  _114
REMARK   46  A    between atoms: _114  and  _115
REMARK   47  A    between atoms: _121  and  _123
REMARK   48  A    between atoms: _123  and  _124
REMARK   49  A    between atoms: _123  and  _126
REMARK   50  A    between atoms: _129  and  _131
REMARK   51  A    between atoms: _131  and  _132
REMARK   52  A    between atoms: _131  and  _134
REMARK   53  A    between atoms: _134  and  _135
REMARK   54  A    between atoms: _135  and  _136
REMARK   55  A    between atoms: _136  and  _137
REMARK   56  A    between atoms: _146  and  _148
REMARK   57  A    between atoms: _148  and  _149
REMARK   58  A    between atoms: _148  and  _151
REMARK   59  A    between atoms: _151  and  _152
REMARK   60  A    between atoms: _158  and  _160
REMARK   61  A    between atoms: _160  and  _161
REMARK   62  A    between atoms: _160  and  _163
REMARK   63  A    between atoms: _163  and  _164
REMARK   64  A    between atoms: _164  and  _165
REMARK   65  A    between atoms: _168  and  _170
REMARK   66  A    between atoms: _170  and  _171
REMARK   67  A    between atoms: _170  and  _173
REMARK   68  A    between atoms: _173  and  _174
REMARK   69  A    between atoms: _174  and  _175
REMARK   70  A    between atoms: _178  and  _180
REMARK   71  A    between atoms: _180  and  _181
REMARK   72  A    between atoms: _180  and  _183
REMARK   73  A    between atoms: _183  and  _184
REMARK   74  A    between atoms: _187  and  _189
REMARK   75  A    between atoms: _189  and  _190
REMARK   76  A    between atoms: _189  and  _192
REMARK   77  A    between atoms: _192  and  _193
REMARK   78  A    between atoms: _193  and  _194
REMARK   79  A    between atoms: _197  and  _199
REMARK   80  A    between atoms: _199  and  _200
REMARK   81  A    between atoms: _199  and  _202
REMARK   82  A    between atoms: _202  and  _203
REMARK   83  A    between atoms: _203  and  _204
REMARK   84  A    between atoms: _207  and  _209
REMARK   85  A    between atoms: _209  and  _210
REMARK   86  A    between atoms: _209  and  _212
REMARK   87  A    between atoms: _212  and  _213
REMARK   88  A    between atoms: _218  and  _219
REMARK   89  A    between atoms: _221  and  _223
REMARK   90  A    between atoms: _223  and  _224
REMARK   91  A    between atoms: _223  and  _226
REMARK   92  A    between atoms: _226  and  _227
REMARK   93  A    between atoms: _237  and  _239
REMARK   94  A    between atoms: _239  and  _240
REMARK   95  A    between atoms: _239  and  _242
REMARK   96  A    between atoms: _242  and  _243
REMARK   97  A    between atoms: _246  and  _248
REMARK   98  A    between atoms: _248  and  _249
REMARK   99  A    between atoms: _248  and  _251
REMARK  100  A    between atoms: _251  and  _252
REMARK  101  A    between atoms: _252  and  _253
REMARK  102  A    between atoms: _253  and  _254
REMARK  103  A    between atoms: _263  and  _265
REMARK  104  A    between atoms: _265  and  _266
REMARK  105  A    between atoms: _265  and  _268
REMARK  106  A    between atoms: _268  and  _269
REMARK  107  A    between atoms: _274  and  _276
REMARK  108  A    between atoms: _276  and  _277
REMARK  109  A    between atoms: _276  and  _279
REMARK  110  A    between atoms: _279  and  _280
REMARK  111  A    between atoms: _283  and  _285
REMARK  112  A    between atoms: _285  and  _286
REMARK  113  A    between atoms: _285  and  _288
REMARK  114  A    between atoms: _288  and  _289
REMARK  115  A    between atoms: _289  and  _290
REMARK  116  A    between atoms: _295  and  _297
REMARK  117  A    between atoms: _297  and  _298
REMARK  118  A    between atoms: _297  and  _300
REMARK  119  A    between atoms: _300  and  _301
REMARK  120  A    between atoms: _304  and  _306
REMARK  121  A    between atoms: _306  and  _307
REMARK  122  A    between atoms: _306  and  _309
REMARK  123  A    between atoms: _311  and  _313
REMARK  124  A    between atoms: _313  and  _314
REMARK  125  A    between atoms: _313  and  _316
REMARK  126  A    between atoms: _316  and  _317
REMARK  127  A    between atoms: _320  and  _322
REMARK  128  A    between atoms: _322  and  _323
REMARK  129  A    between atoms: _322  and  _325
REMARK  130  A    between atoms: _325  and  _326
REMARK  131  A    between atoms: _331  and  _333
REMARK  132  A    between atoms: _333  and  _334
REMARK  133  A    between atoms: _333  and  _336
REMARK  134  A    between atoms: _336  and  _337
REMARK  135  A    between atoms: _337  and  _338
REMARK  136  A    between atoms: _343  and  _345
REMARK  137  A    between atoms: _345  and  _346
REMARK  138  A    between atoms: _345  and  _348
REMARK  139  A    between atoms: _348  and  _349
REMARK  140  A    between atoms: _352  and  _354
REMARK  141  A    between atoms: _354  and  _355
REMARK  142  A    between atoms: _354  and  _357
REMARK  143  A    between atoms: _357  and  _358
REMARK  144  A    between atoms: _361  and  _363
REMARK  145  A    between atoms: _363  and  _364
REMARK  146  A    between atoms: _363  and  _366
REMARK  147  A    between atoms: _366  and  _367
REMARK  148  A    between atoms: _367  and  _368
REMARK  149  A    between atoms: _368  and  _369
REMARK  150  A    between atoms: _378  and  _380
REMARK  151  A    between atoms: _380  and  _381
REMARK  152  A    between atoms: _380  and  _383
REMARK  153  A    between atoms: _383  and  _384
REMARK  154  A    between atoms: _384  and  _385
REMARK  155  A    between atoms: _388  and  _390
REMARK  156  A    between atoms: _390  and  _391
REMARK  157  A    between atoms: _390  and  _393
REMARK  158  A    between atoms: _393  and  _394
REMARK  159  A    between atoms: _396  and  _398
REMARK  160  A    between atoms: _398  and  _399
REMARK  161  A    between atoms: _398  and  _401
REMARK  162  A    between atoms: _401  and  _402
REMARK  163  A    between atoms: _405  and  _407
REMARK  164  A    between atoms: _407  and  _408
REMARK  165  A    between atoms: _407  and  _410
REMARK  166  A    between atoms: _410  and  _411
REMARK  167  A    between atoms: _411  and  _412
REMARK  168  A    between atoms: _412  and  _413
REMARK  169  A    between atoms: _422  and  _424
REMARK  170  A    between atoms: _424  and  _425
REMARK  171  A    between atoms: _424  and  _427
REMARK  172  A    between atoms: _427  and  _428
REMARK  173  A    between atoms: _433  and  _435
REMARK  174  A    between atoms: _435  and  _436
REMARK  175  A    between atoms: _435  and  _438
REMARK  176  A    between atoms: _438  and  _439
REMARK  177  A    between atoms: _442  and  _444
REMARK  178  A    between atoms: _444  and  _445
REMARK  179  A    between atoms: _444  and  _447
REMARK  180  A    between atoms: _447  and  _448
REMARK  181  A    between atoms: _453  and  _454
REMARK  182  A    between atoms: _456  and  _458
REMARK  183  A    between atoms: _458  and  _459
REMARK  184  A    between atoms: _458  and  _461
REMARK  185  A    between atoms: _461  and  _462
REMARK  186  A    between atoms: _465  and  _467
REMARK  187  A    between atoms: _467  and  _468
REMARK  188  A    between atoms: _467  and  _470
REMARK  189  A    between atoms: _470  and  _471
REMARK  190  A    between atoms: _471  and  _472
REMARK  191  A    between atoms: _477  and  _479
REMARK  192  A    between atoms: _479  and  _480
REMARK  193  A    between atoms: _479  and  _482
REMARK  194  A    between atoms: _482  and  _483
REMARK  195  A    between atoms: _483  and  _484
REMARK  196  A    between atoms: _484  and  _485
REMARK  197  A    between atoms: _494  and  _496
REMARK  198  A    between atoms: _496  and  _497
REMARK  199  A    between atoms: _496  and  _499
REMARK  200  A    between atoms: _499  and  _500
REMARK  201  A    between atoms: _505  and  _506
REMARK  202  A    between atoms: _508  and  _510
REMARK  203  A    between atoms: _510  and  _511
REMARK  204  A    between atoms: _513  and  _515
REMARK  205  A    between atoms: _515  and  _516
REMARK  206  A    between atoms: _515  and  _518
REMARK  207  A    between atoms: _518  and  _519
REMARK  208  A    between atoms: _524  and  _526
REMARK  209  A    between atoms: _526  and  _527
REMARK  210  A    between atoms: _526  and  _529
REMARK  211  A    between atoms: _529  and  _530
REMARK  212  A    between atoms: _530  and  _531
REMARK  213  A    between atoms: _536  and  _538
REMARK  214  A    between atoms: _538  and  _539
REMARK  215  A    between atoms: _538  and  _541
REMARK  216  A    between atoms: _541  and  _542
REMARK  217  A    between atoms: _548  and  _550
REMARK  218  A    between atoms: _550  and  _551
REMARK  219  A    between atoms: _554  and  _556
REMARK  220  A    between atoms: _556  and  _557
REMARK  221  A    between atoms: _556  and  _559
REMARK  222  A    between atoms: _559  and  _560
REMARK  223  A    between atoms: _565  and  _566
REMARK  224  A    between atoms: _568  and  _570
REMARK  225  A    between atoms: _570  and  _571
REMARK  226  A    between atoms: _570  and  _573
REMARK  227  A    between atoms: _573  and  _574
REMARK  228  A    between atoms: _579  and  _580
REMARK  229  A    between atoms: _582  and  _584
REMARK  230  A    between atoms: _584  and  _585
REMARK  231  A    between atoms: _584  and  _587
REMARK  232  A    between atoms: _587  and  _588
REMARK  233  A    between atoms: _591  and  _593
REMARK  234  A    between atoms: _593  and  _594
REMARK  235  A    between atoms: _593  and  _596
REMARK  236  A    between atoms: _596  and  _597
REMARK  237  A    between atoms: _607  and  _609
REMARK  238  A    between atoms: _609  and  _610
REMARK  239  A    between atoms: _613  and  _615
REMARK  240  A    between atoms: _615  and  _616
REMARK  241  A    between atoms: _619  and  _621
REMARK  242  A    between atoms: _621  and  _622
REMARK  243  A    between atoms: _621  and  _624
REMARK  244  A    between atoms: _624  and  _625
REMARK  245  A    between atoms: _625  and  _626
REMARK  246  A    between atoms: _631  and  _633
REMARK  247  A    between atoms: _633  and  _634
REMARK  248  A    between atoms: _633  and  _636
REMARK  249  A    between atoms: _636  and  _637
REMARK  250  A    between atoms: _640  and  _642
REMARK  251  A    between atoms: _642  and  _643
REMARK  252  A    between atoms: _642  and  _645
REMARK  253  A    between atoms: _645  and  _646
REMARK  254  A    between atoms: _649  and  _651
REMARK  255  A    between atoms: _651  and  _652
REMARK  256  A    between atoms: _651  and  _654
REMARK  257  A    between atoms: _654  and  _655
REMARK  258  A    between atoms: _655  and  _656
REMARK  259  A    between atoms: _661  and  _663
REMARK  260  A    between atoms: _663  and  _664
REMARK  261  A    between atoms: _663  and  _666
REMARK  262  A    between atoms: _666  and  _667
REMARK  263  A    between atoms: _667  and  _668
REMARK  264  A    between atoms: _668  and  _669
REMARK  265  A    between atoms: _678  and  _680
REMARK  266  A    between atoms: _680  and  _681
REMARK  267  A    between atoms: _680  and  _683
REMARK  268  A    between atoms: _683  and  _684
REMARK  269  A    between atoms: _684  and  _685
REMARK  270  A    between atoms: _685  and  _686
REMARK  271  A    between atoms: _686  and  _687
REMARK  272  A    between atoms: _691  and  _693
REMARK  273  A    between atoms: _693  and  _694
REMARK  274  A    between atoms: _693  and  _696
REMARK  275  A    between atoms: _696  and  _697
REMARK  276  A    between atoms: _707  and  _709
REMARK  277  A    between atoms: _709  and  _710
REMARK  278  A    between atoms: _713  and  _715
REMARK  279  A    between atoms: _715  and  _716
REMARK  280  A    between atoms: _719  and  _721
REMARK  281  A    between atoms: _721  and  _722
REMARK  282  A    between atoms: _721  and  _724
REMARK  283  A    between atoms: _724  and  _725
REMARK  284  A    between atoms: _725  and  _726
REMARK  285  A    between atoms: _726  and  _727
REMARK  286  A    between atoms: _736  and  _738
REMARK  287  A    between atoms: _738  and  _739
REMARK  288  A    between atoms: _738  and  _741
REMARK  289  A    between atoms: _744  and  _746
REMARK  290  A    between atoms: _746  and  _747
REMARK  291  A    between atoms: _750  and  _752
REMARK  292  A    between atoms: _752  and  _753
REMARK  293  A    between atoms: _752  and  _755
REMARK  294  A    between atoms: _755  and  _756
REMARK  295  A    between atoms: _756  and  _757
REMARK  296  A    between atoms: _760  and  _762
REMARK  297  A    between atoms: _762  and  _763
REMARK  298  A    between atoms: _762  and  _765
REMARK  299  A    between atoms: _765  and  _766
REMARK  300  A    between atoms: _766  and  _767
REMARK  301  A    between atoms: _772  and  _774
REMARK  302  A    between atoms: _774  and  _775
REMARK  303  A    between atoms: _774  and  _777
REMARK  304  A    between atoms: _777  and  _778
REMARK  305  A    between atoms: _781  and  _783
REMARK  306  A    between atoms: _783  and  _784
REMARK  307  A    between atoms: _783  and  _786
REMARK  308  A    between atoms: _786  and  _787
REMARK  309  A    between atoms: _787  and  _788
REMARK  310  A    between atoms: _788  and  _789
REMARK  311  A    between atoms: _798  and  _800
REMARK  312  A    between atoms: _800  and  _801
REMARK  313  A    between atoms: _800  and  _803
REMARK  314  A    between atoms: _803  and  _804
REMARK  315  A    between atoms: _807  and  _809
REMARK  316  A    between atoms: _809  and  _810
REMARK  317  A    between atoms: _809  and  _812
REMARK  318  A    between atoms: _812  and  _813
REMARK  319  A    between atoms: _818  and  _819
REMARK  320  A    between atoms: _821  and  _823
REMARK  321  A    between atoms: _823  and  _824
REMARK  322  A    between atoms: _823  and  _826
REMARK  323  A    between atoms: _826  and  _827
REMARK  324  A    between atoms: _830  and  _832
REMARK  325  A    between atoms: _832  and  _833
REMARK  326  A    between atoms: _832  and  _835
REMARK  327  A    between atoms: _835  and  _836
REMARK  328  A    between atoms: _839  and  _841
REMARK  329  A    between atoms: _841  and  _842
REMARK  330  A    between atoms: _841  and  _844
REMARK  331  A    between atoms: _846  and  _848
REMARK  332  A    between atoms: _848  and  _849
REMARK  333  A    between atoms: _848  and  _851
REMARK  334  A    between atoms: _854  and  _856
REMARK  335  A    between atoms: _856  and  _857
REMARK  336  A    between atoms: _856  and  _859
REMARK  337  A    between atoms: _859  and  _860
REMARK  338  A    between atoms: _860  and  _861
REMARK  339  A    between atoms: _864  and  _866
REMARK  340  A    between atoms: _866  and  _867
REMARK  341  A    between atoms: _866  and  _869
REMARK  342  A    between atoms: _869  and  _870
REMARK  343  A    between atoms: _880  and  _882
REMARK  344  A    between atoms: _882  and  _883
REMARK  345  A    between atoms: _882  and  _885
REMARK  346  A    between atoms: _885  and  _886
REMARK  347  A    between atoms: _889  and  _891
REMARK  348  A    between atoms: _891  and  _892
REMARK  349  A    between atoms: _891  and  _894
REMARK  350  A    between atoms: _894  and  _895
REMARK  351  A    between atoms: _900  and  _901
REMARK                            x       y       z     vdW  Elec       q    Type
REMARK                         _______ _______ _______ _____ _____    ______ ____
ROOT
ATOM      1  O   HOH     1      -0.469  12.201  43.100  0.00  0.00    +0.000 OA
ENDROOT
TORSDOF 0
REMARK  Name = ../refined-set-2016/4o2c/4o2c_pocket.pdb
REMARK  351 active torsions:
REMARK  status: ('A' for Active; 'I' for Inactive)
REMARK    1  A    between atoms: _1  and  _3
REMARK    2  A    between atoms: _3  and  _4
REMARK    3  A    between atoms: _3  and  _6
REMARK    4  A    between atoms: _6  and  _7
REMARK    5  A    between atoms: _7  and  _8
REMARK    6  A    between atoms: _10  and  _12
REMARK    7  A    between atoms: _12  and  _13
REMARK    8  A    between atoms: _12  and  _15
REMARK    9  A    between atoms: _15  and  _16
REMARK   10  A    between atoms: _16  and  _17
REMARK   11  A    between atoms: _17  and  _18
REMARK   12  A    between atoms: _27  and  _29
REMARK   13  A    between atoms: _29  and  _30
REMARK   14  A    between atoms: _29  and  _32
REMARK   15  A    between atoms: _32  and  _33
REMARK   16  A    between atoms: _38  and  _39
REMARK   17  A    between atoms: _41  and  _43
REMARK   18  A    between atoms: _43  and  _44
REMARK   19  A    between atoms: _43  and  _46
REMARK   20  A    between atoms: _46  and  _47
REMARK   21  A    between atoms: _53  and  _55
REMARK   22  A    between atoms: _55  and  _56
REMARK   23  A    between atoms: _55  and  _58
REMARK   24  A    between atoms: _58  and  _59
REMARK   25  A    between atoms: _64  and  _65
REMARK   26  A    between atoms: _67  and  _69
REMARK   27  A    between atoms: _69  and  _70
REMARK   28  A    between atoms: _69  and  _72
REMARK   29  A    between atoms: _72  and  _73
REMARK   30  A    between atoms: _79  and  _81
REMARK   31  A    between atoms: _81  and  _82
REMARK   32  A    between atoms: _81  and  _84
REMARK   33  A    between atoms: _84  and  _85
REMARK   34  A    between atoms: _88  and  _90
REMARK   35  A    between atoms: _90  and  _91
REMARK   36  A    between atoms: _90  and  _93
REMARK   37  A    between atoms: _93  and  _94
REMARK   38  A    between atoms: _96  and  _98
REMARK   39  A    between atoms: _98  and  _99
REMARK   40  A    between atoms: _98  and  _101
REMARK   41  A    between atoms: _104  and  _106
REMARK   42  A    between atoms: _106  and  _107
REMARK   43  A    between atoms: _109  and  _111
REMARK   44  A    between atoms: _111  and  _112
REMARK   45  A    between atoms: _111  and  _114
REMARK   46  A    between atoms: _114  and  _115
REMARK   47  A    between atoms: _121  and  _123
REMARK   48  A    between atoms: _123  and  _124
REMARK   49  A    between atoms: _123  and  _126
REMARK   50  A    between atoms: _129  and  _131
REMARK   51  A    between atoms: _131  and  _132
REMARK   52  A    between atoms: _131  and  _134
REMARK   53  A    between atoms: _134  and  _135
REMARK   54  A    between atoms: _135  and  _136
REMARK   55  A    between atoms: _136  and  _137
REMARK   56  A    between atoms: _146  and  _148
REMARK   57  A    between atoms: _148  and  _149
REMARK   58  A    between atoms: _148  and  _151
REMARK   59  A    between atoms: _151  and  _152
REMARK   60  A    between atoms: _158  and  _160
REMARK   61  A    between atoms: _160  and  _161
REMARK   62  A    between atoms: _160  and  _163
REMARK   63  A    between atoms: _163  and  _164
REMARK   64  A    between atoms: _164  and  _165
REMARK   65  A    between atoms: _168  and  _170
REMARK   66  A    between atoms: _170  and  _171
REMARK   67  A    between atoms: _170  and  _173
REMARK   68  A    between atoms: _173  and  _174
REMARK   69  A    between atoms: _174  and  _175
REMARK   70  A    between atoms: _178  and  _180
REMARK   71  A    between atoms: _180  and  _181
REMARK   72  A    between atoms: _180  and  _183
REMARK   73  A    between atoms: _183  and  _184
REMARK   74  A    between atoms: _187  and  _189
REMARK   75  A    between atoms: _189  and  _190
REMARK   76  A    between atoms: _189  and  _192
REMARK   77  A    between atoms: _192  and  _193
REMARK   78  A    between atoms: _193  and  _194
REMARK   79  A    between atoms: _197  and  _199
REMARK   80  A    between atoms: _199  and  _200
REMARK   81  A    between atoms: _199  and  _202
REMARK   82  A    between atoms: _202  and  _203
REMARK   83  A    between atoms: _203  and  _204
REMARK   84  A    between atoms: _207  and  _209
REMARK   85  A    between atoms: _209  and  _210
REMARK   86  A    between atoms: _209  and  _212
REMARK   87  A    between atoms: _212  and  _213
REMARK   88  A    between atoms: _218  and  _219
REMARK   89  A    between atoms: _221  and  _223
REMARK   90  A    between atoms: _223  and  _224
REMARK   91  A    between atoms: _223  and  _226
REMARK   92  A    between atoms: _226  and  _227
REMARK   93  A    between atoms: _237  and  _239
REMARK   94  A    between atoms: _239  and  _240
REMARK   95  A    between atoms: _239  and  _242
REMARK   96  A    between atoms: _242  and  _243
REMARK   97  A    between atoms: _246  and  _248
REMARK   98  A    between atoms: _248  and  _249
REMARK   99  A    between atoms: _248  and  _251
REMARK  100  A    between atoms: _251  and  _252
REMARK  101  A    between atoms: _252  and  _253
REMARK  102  A    between atoms: _253  and  _254
REMARK  103  A    between atoms: _263  and  _265
REMARK  104  A    between atoms: _265  and  _266
REMARK  105  A    between atoms: _265  and  _268
REMARK  106  A    between atoms: _268  and  _269
REMARK  107  A    between atoms: _274  and  _276
REMARK  108  A    between atoms: _276  and  _277
REMARK  109  A    between atoms: _276  and  _279
REMARK  110  A    between atoms: _279  and  _280
REMARK  111  A    between atoms: _283  and  _285
REMARK  112  A    between atoms: _285  and  _286
REMARK  113  A    between atoms: _285  and  _288
REMARK  114  A    between atoms: _288  and  _289
REMARK  115  A    between atoms: _289  and  _290
REMARK  116  A    between atoms: _295  and  _297
REMARK  117  A    between atoms: _297  and  _298
REMARK  118  A    between atoms: _297  and  _300
REMARK  119  A    between atoms: _300  and  _301
REMARK  120  A    between atoms: _304  and  _306
REMARK  121  A    between atoms: _306  and  _307
REMARK  122  A    between atoms: _306  and  _309
REMARK  123  A    between atoms: _311  and  _313
REMARK  124  A    between atoms: _313  and  _314
REMARK  125  A    between atoms: _313  and  _316
REMARK  126  A    between atoms: _316  and  _317
REMARK  127  A    between atoms: _320  and  _322
REMARK  128  A    between atoms: _322  and  _323
REMARK  129  A    between atoms: _322  and  _325
REMARK  130  A    between atoms: _325  and  _326
REMARK  131  A    between atoms: _331  and  _333
REMARK  132  A    between atoms: _333  and  _334
REMARK  133  A    between atoms: _333  and  _336
REMARK  134  A    between atoms: _336  and  _337
REMARK  135  A    between atoms: _337  and  _338
REMARK  136  A    between atoms: _343  and  _345
REMARK  137  A    between atoms: _345  and  _346
REMARK  138  A    between atoms: _345  and  _348
REMARK  139  A    between atoms: _348  and  _349
REMARK  140  A    between atoms: _352  and  _354
REMARK  141  A    between atoms: _354  and  _355
REMARK  142  A    between atoms: _354  and  _357
REMARK  143  A    between atoms: _357  and  _358
REMARK  144  A    between atoms: _361  and  _363
REMARK  145  A    between atoms: _363  and  _364
REMARK  146  A    between atoms: _363  and  _366
REMARK  147  A    between atoms: _366  and  _367
REMARK  148  A    between atoms: _367  and  _368
REMARK  149  A    between atoms: _368  and  _369
REMARK  150  A    between atoms: _378  and  _380
REMARK  151  A    between atoms: _380  and  _381
REMARK  152  A    between atoms: _380  and  _383
REMARK  153  A    between atoms: _383  and  _384
REMARK  154  A    between atoms: _384  and  _385
REMARK  155  A    between atoms: _388  and  _390
REMARK  156  A    between atoms: _390  and  _391
REMARK  157  A    between atoms: _390  and  _393
REMARK  158  A    between atoms: _393  and  _394
REMARK  159  A    between atoms: _396  and  _398
REMARK  160  A    between atoms: _398  and  _399
REMARK  161  A    between atoms: _398  and  _401
REMARK  162  A    between atoms: _401  and  _402
REMARK  163  A    between atoms: _405  and  _407
REMARK  164  A    between atoms: _407  and  _408
REMARK  165  A    between atoms: _407  and  _410
REMARK  166  A    between atoms: _410  and  _411
REMARK  167  A    between atoms: _411  and  _412
REMARK  168  A    between atoms: _412  and  _413
REMARK  169  A    between atoms: _422  and  _424
REMARK  170  A    between atoms: _424  and  _425
REMARK  171  A    between atoms: _424  and  _427
REMARK  172  A    between atoms: _427  and  _428
REMARK  173  A    between atoms: _433  and  _435
REMARK  174  A    between atoms: _435  and  _436
REMARK  175  A    between atoms: _435  and  _438
REMARK  176  A    between atoms: _438  and  _439
REMARK  177  A    between atoms: _442  and  _444
REMARK  178  A    between atoms: _444  and  _445
REMARK  179  A    between atoms: _444  and  _447
REMARK  180  A    between atoms: _447  and  _448
REMARK  181  A    between atoms: _453  and  _454
REMARK  182  A    between atoms: _456  and  _458
REMARK  183  A    between atoms: _458  and  _459
REMARK  184  A    between atoms: _458  and  _461
REMARK  185  A    between atoms: _461  and  _462
REMARK  186  A    between atoms: _465  and  _467
REMARK  187  A    between atoms: _467  and  _468
REMARK  188  A    between atoms: _467  and  _470
REMARK  189  A    between atoms: _470  and  _471
REMARK  190  A    between atoms: _471  and  _472
REMARK  191  A    between atoms: _477  and  _479
REMARK  192  A    between atoms: _479  and  _480
REMARK  193  A    between atoms: _479  and  _482
REMARK  194  A    between atoms: _482  and  _483
REMARK  195  A    between atoms: _483  and  _484
REMARK  196  A    between atoms: _484  and  _485
REMARK  197  A    between atoms: _494  and  _496
REMARK  198  A    between atoms: _496  and  _497
REMARK  199  A    between atoms: _496  and  _499
REMARK  200  A    between atoms: _499  and  _500
REMARK  201  A    between atoms: _505  and  _506
REMARK  202  A    between atoms: _508  and  _510
REMARK  203  A    between atoms: _510  and  _511
REMARK  204  A    between atoms: _513  and  _515
REMARK  205  A    between atoms: _515  and  _516
REMARK  206  A    between atoms: _515  and  _518
REMARK  207  A    between atoms: _518  and  _519
REMARK  208  A    between atoms: _524  and  _526
REMARK  209  A    between atoms: _526  and  _527
REMARK  210  A    between atoms: _526  and  _529
REMARK  211  A    between atoms: _529  and  _530
REMARK  212  A    between atoms: _530  and  _531
REMARK  213  A    between atoms: _536  and  _538
REMARK  214  A    between atoms: _538  and  _539
REMARK  215  A    between atoms: _538  and  _541
REMARK  216  A    between atoms: _541  and  _542
REMARK  217  A    between atoms: _548  and  _550
REMARK  218  A    between atoms: _550  and  _551
REMARK  219  A    between atoms: _554  and  _556
REMARK  220  A    between atoms: _556  and  _557
REMARK  221  A    between atoms: _556  and  _559
REMARK  222  A    between atoms: _559  and  _560
REMARK  223  A    between atoms: _565  and  _566
REMARK  224  A    between atoms: _568  and  _570
REMARK  225  A    between atoms: _570  and  _571
REMARK  226  A    between atoms: _570  and  _573
REMARK  227  A    between atoms: _573  and  _574
REMARK  228  A    between atoms: _579  and  _580
REMARK  229  A    between atoms: _582  and  _584
REMARK  230  A    between atoms: _584  and  _585
REMARK  231  A    between atoms: _584  and  _587
REMARK  232  A    between atoms: _587  and  _588
REMARK  233  A    between atoms: _591  and  _593
REMARK  234  A    between atoms: _593  and  _594
REMARK  235  A    between atoms: _593  and  _596
REMARK  236  A    between atoms: _596  and  _597
REMARK  237  A    between atoms: _607  and  _609
REMARK  238  A    between atoms: _609  and  _610
REMARK  239  A    between atoms: _613  and  _615
REMARK  240  A    between atoms: _615  and  _616
REMARK  241  A    between atoms: _619  and  _621
REMARK  242  A    between atoms: _621  and  _622
REMARK  243  A    between atoms: _621  and  _624
REMARK  244  A    between atoms: _624  and  _625
REMARK  245  A    between atoms: _625  and  _626
REMARK  246  A    between atoms: _631  and  _633
REMARK  247  A    between atoms: _633  and  _634
REMARK  248  A    between atoms: _633  and  _636
REMARK  249  A    between atoms: _636  and  _637
REMARK  250  A    between atoms: _640  and  _642
REMARK  251  A    between atoms: _642  and  _643
REMARK  252  A    between atoms: _642  and  _645
REMARK  253  A    between atoms: _645  and  _646
REMARK  254  A    between atoms: _649  and  _651
REMARK  255  A    between atoms: _651  and  _652
REMARK  256  A    between atoms: _651  and  _654
REMARK  257  A    between atoms: _654  and  _655
REMARK  258  A    between atoms: _655  and  _656
REMARK  259  A    between atoms: _661  and  _663
REMARK  260  A    between atoms: _663  and  _664
REMARK  261  A    between atoms: _663  and  _666
REMARK  262  A    between atoms: _666  and  _667
REMARK  263  A    between atoms: _667  and  _668
REMARK  264  A    between atoms: _668  and  _669
REMARK  265  A    between atoms: _678  and  _680
REMARK  266  A    between atoms: _680  and  _681
REMARK  267  A    between atoms: _680  and  _683
REMARK  268  A    between atoms: _683  and  _684
REMARK  269  A    between atoms: _684  and  _685
REMARK  270  A    between atoms: _685  and  _686
REMARK  271  A    between atoms: _686  and  _687
REMARK  272  A    between atoms: _691  and  _693
REMARK  273  A    between atoms: _693  and  _694
REMARK  274  A    between atoms: _693  and  _696
REMARK  275  A    between atoms: _696  and  _697
REMARK  276  A    between atoms: _707  and  _709
REMARK  277  A    between atoms: _709  and  _710
REMARK  278  A    between atoms: _713  and  _715
REMARK  279  A    between atoms: _715  and  _716
REMARK  280  A    between atoms: _719  and  _721
REMARK  281  A    between atoms: _721  and  _722
REMARK  282  A    between atoms: _721  and  _724
REMARK  283  A    between atoms: _724  and  _725
REMARK  284  A    between atoms: _725  and  _726
REMARK  285  A    between atoms: _726  and  _727
REMARK  286  A    between atoms: _736  and  _738
REMARK  287  A    between atoms: _738  and  _739
REMARK  288  A    between atoms: _738  and  _741
REMARK  289  A    between atoms: _744  and  _746
REMARK  290  A    between atoms: _746  and  _747
REMARK  291  A    between atoms: _750  and  _752
REMARK  292  A    between atoms: _752  and  _753
REMARK  293  A    between atoms: _752  and  _755
REMARK  294  A    between atoms: _755  and  _756
REMARK  295  A    between atoms: _756  and  _757
REMARK  296  A    between atoms: _760  and  _762
REMARK  297  A    between atoms: _762  and  _763
REMARK  298  A    between atoms: _762  and  _765
REMARK  299  A    between atoms: _765  and  _766
REMARK  300  A    between atoms: _766  and  _767
REMARK  301  A    between atoms: _772  and  _774
REMARK  302  A    between atoms: _774  and  _775
REMARK  303  A    between atoms: _774  and  _777
REMARK  304  A    between atoms: _777  and  _778
REMARK  305  A    between atoms: _781  and  _783
REMARK  306  A    between atoms: _783  and  _784
REMARK  307  A    between atoms: _783  and  _786
REMARK  308  A    between atoms: _786  and  _787
REMARK  309  A    between atoms: _787  and  _788
REMARK  310  A    between atoms: _788  and  _789
REMARK  311  A    between atoms: _798  and  _800
REMARK  312  A    between atoms: _800  and  _801
REMARK  313  A    between atoms: _800  and  _803
REMARK  314  A    between atoms: _803  and  _804
REMARK  315  A    between atoms: _807  and  _809
REMARK  316  A    between atoms: _809  and  _810
REMARK  317  A    between atoms: _809  and  _812
REMARK  318  A    between atoms: _812  and  _813
REMARK  319  A    between atoms: _818  and  _819
REMARK  320  A    between atoms: _821  and  _823
REMARK  321  A    between atoms: _823  and  _824
REMARK  322  A    between atoms: _823  and  _826
REMARK  323  A    between atoms: _826  and  _827
REMARK  324  A    between atoms: _830  and  _832
REMARK  325  A    between atoms: _832  and  _833
REMARK  326  A    between atoms: _832  and  _835
REMARK  327  A    between atoms: _835  and  _836
REMARK  328  A    between atoms: _839  and  _841
REMARK  329  A    between atoms: _841  and  _842
REMARK  330  A    between atoms: _841  and  _844
REMARK  331  A    between atoms: _846  and  _848
REMARK  332  A    between atoms: _848  and  _849
REMARK  333  A    between atoms: _848  and  _851
REMARK  334  A    between atoms: _854  and  _856
REMARK  335  A    between atoms: _856  and  _857
REMARK  336  A    between atoms: _856  and  _859
REMARK  337  A    between atoms: _859  and  _860
REMARK  338  A    between atoms: _860  and  _861
REMARK  339  A    between atoms: _864  and  _866
REMARK  340  A    between atoms: _866  and  _867
REMARK  341  A    between atoms: _866  and  _869
REMARK  342  A    between atoms: _869  and  _870
REMARK  343  A    between atoms: _880  and  _882
REMARK  344  A    between atoms: _882  and  _883
REMARK  345  A    between atoms: _882  and  _885
REMARK  346  A    between atoms: _885  and  _886
REMARK  347  A    between atoms: _889  and  _891
REMARK  348  A    between atoms: _891  and  _892
REMARK  349  A    between atoms: _891  and  _894
REMARK  350  A    between atoms: _894  and  _895
REMARK  351  A    between atoms: _900  and  _901
REMARK                            x       y       z     vdW  Elec       q    Type
REMARK                         _______ _______ _______ _____ _____    ______ ____
ROOT
ATOM      1  O   HOH     1      -9.167  15.130  36.303  0.00  0.00    +0.000 OA
ENDROOT
TORSDOF 0
