REMARK  Name = ../refined-set-2016/4rhx/4rhx_pocket.pdb
REMARK  230 active torsions:
REMARK  status: ('A' for Active; 'I' for Inactive)
REMARK    1  A    between atoms: _1  and  _3
REMARK    2  A    between atoms: _3  and  _4
REMARK    3  A    between atoms: _3  and  _6
REMARK    4  A    between atoms: _6  and  _7
REMARK    5  A    between atoms: _10  and  _12
REMARK    6  A    between atoms: _12  and  _13
REMARK    7  A    between atoms: _12  and  _15
REMARK    8  A    between atoms: _18  and  _20
REMARK    9  A    between atoms: _20  and  _21
REMARK   10  A    between atoms: _20  and  _23
REMARK   11  A    between atoms: _23  and  _24
REMARK   12  A    between atoms: _27  and  _29
REMARK   13  A    between atoms: _29  and  _30
REMARK   14  A    between atoms: _29  and  _32
REMARK   15  A    between atoms: _32  and  _33
REMARK   16  A    between atoms: _33  and  _34
REMARK   17  A    between atoms: _34  and  _35
REMARK   18  A    between atoms: _35  and  _36
REMARK   19  A    between atoms: _40  and  _42
REMARK   20  A    between atoms: _42  and  _43
REMARK   21  A    between atoms: _45  and  _47
REMARK   22  A    between atoms: _47  and  _48
REMARK   23  A    between atoms: _51  and  _53
REMARK   24  A    between atoms: _53  and  _54
REMARK   25  A    between atoms: _53  and  _56
REMARK   26  A    between atoms: _59  and  _61
REMARK   27  A    between atoms: _61  and  _62
REMARK   28  A    between atoms: _61  and  _64
REMARK   29  A    between atoms: _64  and  _65
REMARK   30  A    between atoms: _65  and  _66
REMARK   31  A    between atoms: _68  and  _70
REMARK   32  A    between atoms: _70  and  _71
REMARK   33  A    between atoms: _74  and  _76
REMARK   34  A    between atoms: _76  and  _77
REMARK   35  A    between atoms: _76  and  _79
REMARK   36  A    between atoms: _82  and  _84
REMARK   37  A    between atoms: _84  and  _85
REMARK   38  A    between atoms: _84  and  _87
REMARK   39  A    between atoms: _87  and  _88
REMARK   40  A    between atoms: _90  and  _92
REMARK   41  A    between atoms: _92  and  _93
REMARK   42  A    between atoms: _92  and  _95
REMARK   43  A    between atoms: _95  and  _96
REMARK   44  A    between atoms: _98  and  _100
REMARK   45  A    between atoms: _100  and  _101
REMARK   46  A    between atoms: _100  and  _103
REMARK   47  A    between atoms: _103  and  _104
REMARK   48  A    between atoms: _109  and  _110
REMARK   49  A    between atoms: _112  and  _114
REMARK   50  A    between atoms: _114  and  _115
REMARK   51  A    between atoms: _117  and  _119
REMARK   52  A    between atoms: _119  and  _120
REMARK   53  A    between atoms: _119  and  _122
REMARK   54  A    between atoms: _125  and  _127
REMARK   55  A    between atoms: _127  and  _128
REMARK   56  A    between atoms: _127  and  _130
REMARK   57  A    between atoms: _130  and  _131
REMARK   58  A    between atoms: _131  and  _132
REMARK   59  A    between atoms: _132  and  _133
REMARK   60  A    between atoms: _142  and  _144
REMARK   61  A    between atoms: _144  and  _145
REMARK   62  A    between atoms: _144  and  _147
REMARK   63  A    between atoms: _147  and  _148
REMARK   64  A    between atoms: _151  and  _153
REMARK   65  A    between atoms: _153  and  _154
REMARK   66  A    between atoms: _153  and  _156
REMARK   67  A    between atoms: _156  and  _157
REMARK   68  A    between atoms: _157  and  _158
REMARK   69  A    between atoms: _161  and  _163
REMARK   70  A    between atoms: _163  and  _164
REMARK   71  A    between atoms: _163  and  _166
REMARK   72  A    between atoms: _166  and  _167
REMARK   73  A    between atoms: _170  and  _172
REMARK   74  A    between atoms: _172  and  _173
REMARK   75  A    between atoms: _172  and  _175
REMARK   76  A    between atoms: _178  and  _180
REMARK   77  A    between atoms: _180  and  _181
REMARK   78  A    between atoms: _180  and  _183
REMARK   79  A    between atoms: _186  and  _188
REMARK   80  A    between atoms: _188  and  _189
REMARK   81  A    between atoms: _188  and  _191
REMARK   82  A    between atoms: _191  and  _192
REMARK   83  A    between atoms: _195  and  _197
REMARK   84  A    between atoms: _197  and  _198
REMARK   85  A    between atoms: _197  and  _200
REMARK   86  A    between atoms: _200  and  _201
REMARK   87  A    between atoms: _203  and  _205
REMARK   88  A    between atoms: _205  and  _206
REMARK   89  A    between atoms: _208  and  _210
REMARK   90  A    between atoms: _210  and  _211
REMARK   91  A    between atoms: _210  and  _213
REMARK   92  A    between atoms: _213  and  _214
REMARK   93  A    between atoms: _217  and  _219
REMARK   94  A    between atoms: _219  and  _220
REMARK   95  A    between atoms: _219  and  _222
REMARK   96  A    between atoms: _222  and  _223
REMARK   97  A    between atoms: _226  and  _228
REMARK   98  A    between atoms: _228  and  _229
REMARK   99  A    between atoms: _228  and  _231
REMARK  100  A    between atoms: _231  and  _232
REMARK  101  A    between atoms: _235  and  _237
REMARK  102  A    between atoms: _237  and  _238
REMARK  103  A    between atoms: _237  and  _240
REMARK  104  A    between atoms: _240  and  _241
REMARK  105  A    between atoms: _243  and  _245
REMARK  106  A    between atoms: _245  and  _246
REMARK  107  A    between atoms: _245  and  _248
REMARK  108  A    between atoms: _248  and  _249
REMARK  109  A    between atoms: _259  and  _261
REMARK  110  A    between atoms: _261  and  _262
REMARK  111  A    between atoms: _261  and  _264
REMARK  112  A    between atoms: _264  and  _265
REMARK  113  A    between atoms: _268  and  _270
REMARK  114  A    between atoms: _270  and  _271
REMARK  115  A    between atoms: _270  and  _273
REMARK  116  A    between atoms: _273  and  _274
REMARK  117  A    between atoms: _277  and  _279
REMARK  118  A    between atoms: _279  and  _280
REMARK  119  A    between atoms: _279  and  _282
REMARK  120  A    between atoms: _282  and  _283
REMARK  121  A    between atoms: _283  and  _284
REMARK  122  A    between atoms: _284  and  _285
REMARK  123  A    between atoms: _285  and  _286
REMARK  124  A    between atoms: _290  and  _292
REMARK  125  A    between atoms: _292  and  _293
REMARK  126  A    between atoms: _292  and  _295
REMARK  127  A    between atoms: _295  and  _296
REMARK  128  A    between atoms: _299  and  _301
REMARK  129  A    between atoms: _301  and  _302
REMARK  130  A    between atoms: _305  and  _307
REMARK  131  A    between atoms: _307  and  _308
REMARK  132  A    between atoms: _311  and  _313
REMARK  133  A    between atoms: _313  and  _314
REMARK  134  A    between atoms: _313  and  _316
REMARK  135  A    between atoms: _316  and  _317
REMARK  136  A    between atoms: _321  and  _322
REMARK  137  A    between atoms: _327  and  _329
REMARK  138  A    between atoms: _329  and  _330
REMARK  139  A    between atoms: _329  and  _332
REMARK  140  A    between atoms: _332  and  _333
REMARK  141  A    between atoms: _338  and  _340
REMARK  142  A    between atoms: _340  and  _341
REMARK  143  A    between atoms: _340  and  _343
REMARK  144  A    between atoms: _343  and  _344
REMARK  145  A    between atoms: _347  and  _349
REMARK  146  A    between atoms: _349  and  _350
REMARK  147  A    between atoms: _349  and  _352
REMARK  148  A    between atoms: _352  and  _353
REMARK  149  A    between atoms: _359  and  _361
REMARK  150  A    between atoms: _361  and  _362
REMARK  151  A    between atoms: _361  and  _364
REMARK  152  A    between atoms: _367  and  _369
REMARK  153  A    between atoms: _369  and  _370
REMARK  154  A    between atoms: _369  and  _372
REMARK  155  A    between atoms: _375  and  _377
REMARK  156  A    between atoms: _377  and  _378
REMARK  157  A    between atoms: _380  and  _382
REMARK  158  A    between atoms: _382  and  _383
REMARK  159  A    between atoms: _385  and  _387
REMARK  160  A    between atoms: _387  and  _388
REMARK  161  A    between atoms: _387  and  _390
REMARK  162  A    between atoms: _390  and  _391
REMARK  163  A    between atoms: _394  and  _396
REMARK  164  A    between atoms: _396  and  _397
REMARK  165  A    between atoms: _396  and  _399
REMARK  166  A    between atoms: _399  and  _400
REMARK  167  A    between atoms: _400  and  _402
REMARK  168  A    between atoms: _402  and  MG_565
REMARK  169  A    between atoms: _403  and  _405
REMARK  170  A    between atoms: _405  and  _406
REMARK  171  A    between atoms: _405  and  _408
REMARK  172  A    between atoms: _408  and  _409
REMARK  173  A    between atoms: _414  and  _415
REMARK  174  A    between atoms: _417  and  _419
REMARK  175  A    between atoms: _419  and  _420
REMARK  176  A    between atoms: _419  and  _422
REMARK  177  A    between atoms: _422  and  _423
REMARK  178  A    between atoms: _426  and  _428
REMARK  179  A    between atoms: _428  and  _429
REMARK  180  A    between atoms: _428  and  _431
REMARK  181  A    between atoms: _431  and  _432
REMARK  182  A    between atoms: _432  and  _433
REMARK  183  A    between atoms: _436  and  _438
REMARK  184  A    between atoms: _438  and  _439
REMARK  185  A    between atoms: _438  and  _441
REMARK  186  A    between atoms: _441  and  _442
REMARK  187  A    between atoms: _442  and  _443
REMARK  188  A    between atoms: _443  and  _444
REMARK  189  A    between atoms: _453  and  _455
REMARK  190  A    between atoms: _455  and  _456
REMARK  191  A    between atoms: _455  and  _458
REMARK  192  A    between atoms: _458  and  _459
REMARK  193  A    between atoms: _464  and  _465
REMARK  194  A    between atoms: _467  and  _469
REMARK  195  A    between atoms: _469  and  _470
REMARK  196  A    between atoms: _469  and  _472
REMARK  197  A    between atoms: _472  and  _473
REMARK  198  A    between atoms: _473  and  _474
REMARK  199  A    between atoms: _474  and  _475
REMARK  200  A    between atoms: _484  and  _486
REMARK  201  A    between atoms: _486  and  _487
REMARK  202  A    between atoms: _486  and  _489
REMARK  203  A    between atoms: _489  and  _490
REMARK  204  A    between atoms: _493  and  _495
REMARK  205  A    between atoms: _495  and  _496
REMARK  206  A    between atoms: _498  and  _500
REMARK  207  A    between atoms: _500  and  _501
REMARK  208  A    between atoms: _500  and  _503
REMARK  209  A    between atoms: _503  and  _504
REMARK  210  A    between atoms: _507  and  _509
REMARK  211  A    between atoms: _509  and  _510
REMARK  212  A    between atoms: _509  and  _512
REMARK  213  A    between atoms: _512  and  _513
REMARK  214  A    between atoms: _518  and  _519
REMARK  215  A    between atoms: _521  and  _523
REMARK  216  A    between atoms: _523  and  _524
REMARK  217  A    between atoms: _523  and  _526
REMARK  218  A    between atoms: _526  and  _527
REMARK  219  A    between atoms: _533  and  _535
REMARK  220  A    between atoms: _535  and  _536
REMARK  221  A    between atoms: _535  and  _538
REMARK  222  A    between atoms: _538  and  _539
REMARK  223  A    between atoms: _545  and  _547
REMARK  224  A    between atoms: _547  and  _548
REMARK  225  A    between atoms: _547  and  _550
REMARK  226  A    between atoms: _550  and  _551
REMARK  227  A    between atoms: _554  and  _556
REMARK  228  A    between atoms: _556  and  _557
REMARK  229  A    between atoms: _556  and  _559
REMARK  230  A    between atoms: _559  and  _560
REMARK                            x       y       z     vdW  Elec       q    Type
REMARK                         _______ _______ _______ _____ _____    ______ ____
ROOT
ATOM      1  CA  LEU A   1     -10.874  14.108 139.812  0.00  0.00    +0.133 C 
ENDROOT
BRANCH   1   2
ATOM      2  N   LEU A   1     -10.123  13.019 140.423  0.00  0.00    -0.239 NA
ATOM      3  H   LEU A   1      -9.578  12.374 139.815  0.00  0.00    +0.142 HD
ENDBRANCH   1   2
BRANCH   1   4
ATOM      4  C   LEU A   1     -12.335  13.715 139.631  0.00  0.00    +0.224 C 
ATOM      5  O   LEU A   1     -13.244  14.465 139.986  0.00  0.00    -0.287 OA
ENDBRANCH   1   4
BRANCH   1   6
ATOM      6  CB  LEU A   1     -10.262  14.493 138.464  0.00  0.00    +0.025 C 
BRANCH   6   7
ATOM      7  CG  LEU A   1     -10.890  15.695 137.758  0.00  0.00    +0.002 C 
ATOM      8  CD2 LEU A   1     -10.614  16.975 138.535  0.00  0.00    +0.000 C 
ATOM      9  CD1 LEU A   1     -10.391  15.806 136.325  0.00  0.00    +0.000 C 
ENDBRANCH   6   7
ENDBRANCH   1   6
TORSDOF 4
REMARK  Name = ../refined-set-2016/4rhx/4rhx_pocket.pdb
REMARK  230 active torsions:
REMARK  status: ('A' for Active; 'I' for Inactive)
REMARK    1  A    between atoms: _1  and  _3
REMARK    2  A    between atoms: _3  and  _4
REMARK    3  A    between atoms: _3  and  _6
REMARK    4  A    between atoms: _6  and  _7
REMARK    5  A    between atoms: _10  and  _12
REMARK    6  A    between atoms: _12  and  _13
REMARK    7  A    between atoms: _12  and  _15
REMARK    8  A    between atoms: _18  and  _20
REMARK    9  A    between atoms: _20  and  _21
REMARK   10  A    between atoms: _20  and  _23
REMARK   11  A    between atoms: _23  and  _24
REMARK   12  A    between atoms: _27  and  _29
REMARK   13  A    between atoms: _29  and  _30
REMARK   14  A    between atoms: _29  and  _32
REMARK   15  A    between atoms: _32  and  _33
REMARK   16  A    between atoms: _33  and  _34
REMARK   17  A    between atoms: _34  and  _35
REMARK   18  A    between atoms: _35  and  _36
REMARK   19  A    between atoms: _40  and  _42
REMARK   20  A    between atoms: _42  and  _43
REMARK   21  A    between atoms: _45  and  _47
REMARK   22  A    between atoms: _47  and  _48
REMARK   23  A    between atoms: _51  and  _53
REMARK   24  A    between atoms: _53  and  _54
REMARK   25  A    between atoms: _53  and  _56
REMARK   26  A    between atoms: _59  and  _61
REMARK   27  A    between atoms: _61  and  _62
REMARK   28  A    between atoms: _61  and  _64
REMARK   29  A    between atoms: _64  and  _65
REMARK   30  A    between atoms: _65  and  _66
REMARK   31  A    between atoms: _68  and  _70
REMARK   32  A    between atoms: _70  and  _71
REMARK   33  A    between atoms: _74  and  _76
REMARK   34  A    between atoms: _76  and  _77
REMARK   35  A    between atoms: _76  and  _79
REMARK   36  A    between atoms: _82  and  _84
REMARK   37  A    between atoms: _84  and  _85
REMARK   38  A    between atoms: _84  and  _87
REMARK   39  A    between atoms: _87  and  _88
REMARK   40  A    between atoms: _90  and  _92
REMARK   41  A    between atoms: _92  and  _93
REMARK   42  A    between atoms: _92  and  _95
REMARK   43  A    between atoms: _95  and  _96
REMARK   44  A    between atoms: _98  and  _100
REMARK   45  A    between atoms: _100  and  _101
REMARK   46  A    between atoms: _100  and  _103
REMARK   47  A    between atoms: _103  and  _104
REMARK   48  A    between atoms: _109  and  _110
REMARK   49  A    between atoms: _112  and  _114
REMARK   50  A    between atoms: _114  and  _115
REMARK   51  A    between atoms: _117  and  _119
REMARK   52  A    between atoms: _119  and  _120
REMARK   53  A    between atoms: _119  and  _122
REMARK   54  A    between atoms: _125  and  _127
REMARK   55  A    between atoms: _127  and  _128
REMARK   56  A    between atoms: _127  and  _130
REMARK   57  A    between atoms: _130  and  _131
REMARK   58  A    between atoms: _131  and  _132
REMARK   59  A    between atoms: _132  and  _133
REMARK   60  A    between atoms: _142  and  _144
REMARK   61  A    between atoms: _144  and  _145
REMARK   62  A    between atoms: _144  and  _147
REMARK   63  A    between atoms: _147  and  _148
REMARK   64  A    between atoms: _151  and  _153
REMARK   65  A    between atoms: _153  and  _154
REMARK   66  A    between atoms: _153  and  _156
REMARK   67  A    between atoms: _156  and  _157
REMARK   68  A    between atoms: _157  and  _158
REMARK   69  A    between atoms: _161  and  _163
REMARK   70  A    between atoms: _163  and  _164
REMARK   71  A    between atoms: _163  and  _166
REMARK   72  A    between atoms: _166  and  _167
REMARK   73  A    between atoms: _170  and  _172
REMARK   74  A    between atoms: _172  and  _173
REMARK   75  A    between atoms: _172  and  _175
REMARK   76  A    between atoms: _178  and  _180
REMARK   77  A    between atoms: _180  and  _181
REMARK   78  A    between atoms: _180  and  _183
REMARK   79  A    between atoms: _186  and  _188
REMARK   80  A    between atoms: _188  and  _189
REMARK   81  A    between atoms: _188  and  _191
REMARK   82  A    between atoms: _191  and  _192
REMARK   83  A    between atoms: _195  and  _197
REMARK   84  A    between atoms: _197  and  _198
REMARK   85  A    between atoms: _197  and  _200
REMARK   86  A    between atoms: _200  and  _201
REMARK   87  A    between atoms: _203  and  _205
REMARK   88  A    between atoms: _205  and  _206
REMARK   89  A    between atoms: _208  and  _210
REMARK   90  A    between atoms: _210  and  _211
REMARK   91  A    between atoms: _210  and  _213
REMARK   92  A    between atoms: _213  and  _214
REMARK   93  A    between atoms: _217  and  _219
REMARK   94  A    between atoms: _219  and  _220
REMARK   95  A    between atoms: _219  and  _222
REMARK   96  A    between atoms: _222  and  _223
REMARK   97  A    between atoms: _226  and  _228
REMARK   98  A    between atoms: _228  and  _229
REMARK   99  A    between atoms: _228  and  _231
REMARK  100  A    between atoms: _231  and  _232
REMARK  101  A    between atoms: _235  and  _237
REMARK  102  A    between atoms: _237  and  _238
REMARK  103  A    between atoms: _237  and  _240
REMARK  104  A    between atoms: _240  and  _241
REMARK  105  A    between atoms: _243  and  _245
REMARK  106  A    between atoms: _245  and  _246
REMARK  107  A    between atoms: _245  and  _248
REMARK  108  A    between atoms: _248  and  _249
REMARK  109  A    between atoms: _259  and  _261
REMARK  110  A    between atoms: _261  and  _262
REMARK  111  A    between atoms: _261  and  _264
REMARK  112  A    between atoms: _264  and  _265
REMARK  113  A    between atoms: _268  and  _270
REMARK  114  A    between atoms: _270  and  _271
REMARK  115  A    between atoms: _270  and  _273
REMARK  116  A    between atoms: _273  and  _274
REMARK  117  A    between atoms: _277  and  _279
REMARK  118  A    between atoms: _279  and  _280
REMARK  119  A    between atoms: _279  and  _282
REMARK  120  A    between atoms: _282  and  _283
REMARK  121  A    between atoms: _283  and  _284
REMARK  122  A    between atoms: _284  and  _285
REMARK  123  A    between atoms: _285  and  _286
REMARK  124  A    between atoms: _290  and  _292
REMARK  125  A    between atoms: _292  and  _293
REMARK  126  A    between atoms: _292  and  _295
REMARK  127  A    between atoms: _295  and  _296
REMARK  128  A    between atoms: _299  and  _301
REMARK  129  A    between atoms: _301  and  _302
REMARK  130  A    between atoms: _305  and  _307
REMARK  131  A    between atoms: _307  and  _308
REMARK  132  A    between atoms: _311  and  _313
REMARK  133  A    between atoms: _313  and  _314
REMARK  134  A    between atoms: _313  and  _316
REMARK  135  A    between atoms: _316  and  _317
REMARK  136  A    between atoms: _321  and  _322
REMARK  137  A    between atoms: _327  and  _329
REMARK  138  A    between atoms: _329  and  _330
REMARK  139  A    between atoms: _329  and  _332
REMARK  140  A    between atoms: _332  and  _333
REMARK  141  A    between atoms: _338  and  _340
REMARK  142  A    between atoms: _340  and  _341
REMARK  143  A    between atoms: _340  and  _343
REMARK  144  A    between atoms: _343  and  _344
REMARK  145  A    between atoms: _347  and  _349
REMARK  146  A    between atoms: _349  and  _350
REMARK  147  A    between atoms: _349  and  _352
REMARK  148  A    between atoms: _352  and  _353
REMARK  149  A    between atoms: _359  and  _361
REMARK  150  A    between atoms: _361  and  _362
REMARK  151  A    between atoms: _361  and  _364
REMARK  152  A    between atoms: _367  and  _369
REMARK  153  A    between atoms: _369  and  _370
REMARK  154  A    between atoms: _369  and  _372
REMARK  155  A    between atoms: _375  and  _377
REMARK  156  A    between atoms: _377  and  _378
REMARK  157  A    between atoms: _380  and  _382
REMARK  158  A    between atoms: _382  and  _383
REMARK  159  A    between atoms: _385  and  _387
REMARK  160  A    between atoms: _387  and  _388
REMARK  161  A    between atoms: _387  and  _390
REMARK  162  A    between atoms: _390  and  _391
REMARK  163  A    between atoms: _394  and  _396
REMARK  164  A    between atoms: _396  and  _397
REMARK  165  A    between atoms: _396  and  _399
REMARK  166  A    between atoms: _399  and  _400
REMARK  167  A    between atoms: _400  and  _402
REMARK  168  A    between atoms: _402  and  MG_565
REMARK  169  A    between atoms: _403  and  _405
REMARK  170  A    between atoms: _405  and  _406
REMARK  171  A    between atoms: _405  and  _408
REMARK  172  A    between atoms: _408  and  _409
REMARK  173  A    between atoms: _414  and  _415
REMARK  174  A    between atoms: _417  and  _419
REMARK  175  A    between atoms: _419  and  _420
REMARK  176  A    between atoms: _419  and  _422
REMARK  177  A    between atoms: _422  and  _423
REMARK  178  A    between atoms: _426  and  _428
REMARK  179  A    between atoms: _428  and  _429
REMARK  180  A    between atoms: _428  and  _431
REMARK  181  A    between atoms: _431  and  _432
REMARK  182  A    between atoms: _432  and  _433
REMARK  183  A    between atoms: _436  and  _438
REMARK  184  A    between atoms: _438  and  _439
REMARK  185  A    between atoms: _438  and  _441
REMARK  186  A    between atoms: _441  and  _442
REMARK  187  A    between atoms: _442  and  _443
REMARK  188  A    between atoms: _443  and  _444
REMARK  189  A    between atoms: _453  and  _455
REMARK  190  A    between atoms: _455  and  _456
REMARK  191  A    between atoms: _455  and  _458
REMARK  192  A    between atoms: _458  and  _459
REMARK  193  A    between atoms: _464  and  _465
REMARK  194  A    between atoms: _467  and  _469
REMARK  195  A    between atoms: _469  and  _470
REMARK  196  A    between atoms: _469  and  _472
REMARK  197  A    between atoms: _472  and  _473
REMARK  198  A    between atoms: _473  and  _474
REMARK  199  A    between atoms: _474  and  _475
REMARK  200  A    between atoms: _484  and  _486
REMARK  201  A    between atoms: _486  and  _487
REMARK  202  A    between atoms: _486  and  _489
REMARK  203  A    between atoms: _489  and  _490
REMARK  204  A    between atoms: _493  and  _495
REMARK  205  A    between atoms: _495  and  _496
REMARK  206  A    between atoms: _498  and  _500
REMARK  207  A    between atoms: _500  and  _501
REMARK  208  A    between atoms: _500  and  _503
REMARK  209  A    between atoms: _503  and  _504
REMARK  210  A    between atoms: _507  and  _509
REMARK  211  A    between atoms: _509  and  _510
REMARK  212  A    between atoms: _509  and  _512
REMARK  213  A    between atoms: _512  and  _513
REMARK  214  A    between atoms: _518  and  _519
REMARK  215  A    between atoms: _521  and  _523
REMARK  216  A    between atoms: _523  and  _524
REMARK  217  A    between atoms: _523  and  _526
REMARK  218  A    between atoms: _526  and  _527
REMARK  219  A    between atoms: _533  and  _535
REMARK  220  A    between atoms: _535  and  _536
REMARK  221  A    between atoms: _535  and  _538
REMARK  222  A    between atoms: _538  and  _539
REMARK  223  A    between atoms: _545  and  _547
REMARK  224  A    between atoms: _547  and  _548
REMARK  225  A    between atoms: _547  and  _550
REMARK  226  A    between atoms: _550  and  _551
REMARK  227  A    between atoms: _554  and  _556
REMARK  228  A    between atoms: _556  and  _557
REMARK  229  A    between atoms: _556  and  _559
REMARK  230  A    between atoms: _559  and  _560
REMARK                            x       y       z     vdW  Elec       q    Type
REMARK                         _______ _______ _______ _____ _____    ______ ____
ROOT
ATOM      1  CA  LYS A   3      -6.895   3.690 122.882  0.00  0.00    +0.149 C 
ENDROOT
BRANCH   1   3
ATOM      2  C   LEU A   2      -6.866   4.996 120.795  0.00  0.00    +0.241 C 
ATOM      3  N   LYS A   3      -6.350   4.712 121.992  0.00  0.00    -0.297 N 
ATOM      4  H   LYS A   3      -5.516   5.246 122.308  0.00  0.00    +0.150 HD
ATOM      5  O   LEU A   2      -6.439   5.911 120.093  0.00  0.00    -0.273 OA
BRANCH   2   6
ATOM      6  CA  LEU A   2      -8.044   4.148 120.312  0.00  0.00    +0.149 C 
BRANCH   6   9
ATOM      7  C   VAL A   1      -9.554   6.006 119.819  0.00  0.00    +0.238 C 
ATOM      8  O   VAL A   1      -9.504   6.437 120.973  0.00  0.00    -0.274 OA
ATOM      9  N   LEU A   2      -8.906   4.915 119.418  0.00  0.00    -0.297 N 
ATOM     10  H   LEU A   2      -9.018   4.598 118.434  0.00  0.00    +0.150 HD
BRANCH   7  11
ATOM     11  CA  VAL A   1     -10.394   6.712 118.760  0.00  0.00    +0.145 C 
BRANCH  11  12
ATOM     12  CB  VAL A   1     -10.153   8.228 118.837  0.00  0.00    +0.025 C 
ATOM     13  CG2 VAL A   1      -8.713   8.550 118.460  0.00  0.00    +0.002 C 
ATOM     14  CG1 VAL A   1     -11.124   8.963 117.920  0.00  0.00    +0.002 C 
ENDBRANCH  11  12
BRANCH  11  15
ATOM     15  N   VAL A   1     -11.800   6.382 118.935  0.00  0.00    -0.238 NA
ATOM     16  H   VAL A   1     -12.394   6.983 119.541  0.00  0.00    +0.142 HD
ENDBRANCH  11  15
ENDBRANCH   7  11
ENDBRANCH   6   9
BRANCH   6  17
ATOM     17  CB  LEU A   2      -7.530   2.887 119.607  0.00  0.00    +0.029 C 
BRANCH  17  18
ATOM     18  CG  LEU A   2      -8.542   1.890 119.044  0.00  0.00    +0.002 C 
ATOM     19  CD2 LEU A   2      -9.702   1.686 119.988  0.00  0.00    +0.000 C 
ATOM     20  CD1 LEU A   2      -7.854   0.569 118.762  0.00  0.00    +0.000 C 
ENDBRANCH  17  18
ENDBRANCH   6  17
ENDBRANCH   2   6
ENDBRANCH   1   3
BRANCH   1  21
ATOM     21  C   LYS A   3      -7.690   4.309 124.029  0.00  0.00    +0.241 C 
ATOM     22  O   LYS A   3      -8.433   3.620 124.722  0.00  0.00    -0.273 OA
ATOM     23  N   GLY A   4      -7.528   5.613 124.224  0.00  0.00    -0.295 N 
ATOM     24  H   GLY A   4      -6.964   6.160 123.543  0.00  0.00    +0.150 HD
BRANCH  23  25
ATOM     25  CA  GLY A   4      -8.117   6.295 125.363  0.00  0.00    +0.176 C 
BRANCH  25  26
ATOM     26  C   GLY A   4      -9.631   6.245 125.475  0.00  0.00    +0.243 C 
ATOM     27  O   GLY A   4     -10.174   6.371 126.571  0.00  0.00    -0.273 OA
ATOM     28  N   ALA A   5     -10.317   6.059 124.352  0.00  0.00    -0.297 N 
ATOM     29  H   ALA A   5      -9.808   5.851 123.469  0.00  0.00    +0.150 HD
BRANCH  28  30
ATOM     30  CA  ALA A   5     -11.775   6.142 124.339  0.00  0.00    +0.149 C 
ATOM     31  CB  ALA A   5     -12.241   6.874 123.086  0.00  0.00    +0.031 C 
BRANCH  30  32
ATOM     32  C   ALA A   5     -12.466   4.782 124.434  0.00  0.00    +0.241 C 
ATOM     33  N   VAL A   6     -11.688   3.714 124.591  0.00  0.00    -0.298 N 
ATOM     34  H   VAL A   6     -10.664   3.844 124.718  0.00  0.00    +0.150 HD
ATOM     35  O   ALA A   5     -13.694   4.709 124.378  0.00  0.00    -0.273 OA
BRANCH  33  36
ATOM     36  CA  VAL A   6     -12.245   2.359 124.588  0.00  0.00    +0.137 C 
BRANCH  36  37
ATOM     37  CB  VAL A   6     -11.134   1.292 124.601  0.00  0.00    +0.026 C 
ATOM     38  CG2 VAL A   6     -11.737  -0.098 124.529  0.00  0.00    +0.002 C 
ATOM     39  CG1 VAL A   6     -10.207   1.496 123.434  0.00  0.00    +0.002 C 
ENDBRANCH  36  37
BRANCH  36  40
ATOM     40  C   VAL A   6     -13.192   2.081 125.759  0.00  0.00    +0.227 C 
ATOM     41  O   VAL A   6     -14.272   1.528 125.560  0.00  0.00    -0.286 OA
ENDBRANCH  36  40
ENDBRANCH  33  36
ENDBRANCH  30  32
ENDBRANCH  28  30
ENDBRANCH  25  26
ENDBRANCH  23  25
ENDBRANCH   1  21
BRANCH   1  42
ATOM     42  CB  LYS A   3      -5.773   2.814 123.451  0.00  0.00    +0.029 C 
BRANCH  42  43
ATOM     43  CG  LYS A   3      -4.878   2.165 122.404  0.00  0.00    +0.000 C 
BRANCH  43  44
ATOM     44  CD  LYS A   3      -4.034   1.058 123.014  0.00  0.00    -0.024 C 
BRANCH  44  45
ATOM     45  CE  LYS A   3      -2.564   1.442 123.091  0.00  0.00    -0.086 C 
BRANCH  45  46
ATOM     46  NZ  LYS A   3      -1.957   1.608 121.742  0.00  0.00    +0.380 N 
ATOM     47  HZ1 LYS A   3      -0.956   1.869 121.844  0.00  0.00    -0.089 HD
ATOM     48  HZ2 LYS A   3      -2.461   2.357 121.226  0.00  0.00    -0.089 HD
ATOM     49  HZ3 LYS A   3      -2.032   0.713 121.217  0.00  0.00    -0.089 HD
ENDBRANCH  45  46
ENDBRANCH  44  45
ENDBRANCH  43  44
ENDBRANCH  42  43
ENDBRANCH   1  42
TORSDOF 21
REMARK  Name = ../refined-set-2016/4rhx/4rhx_pocket.pdb
REMARK  230 active torsions:
REMARK  status: ('A' for Active; 'I' for Inactive)
REMARK    1  A    between atoms: _1  and  _3
REMARK    2  A    between atoms: _3  and  _4
REMARK    3  A    between atoms: _3  and  _6
REMARK    4  A    between atoms: _6  and  _7
REMARK    5  A    between atoms: _10  and  _12
REMARK    6  A    between atoms: _12  and  _13
REMARK    7  A    between atoms: _12  and  _15
REMARK    8  A    between atoms: _18  and  _20
REMARK    9  A    between atoms: _20  and  _21
REMARK   10  A    between atoms: _20  and  _23
REMARK   11  A    between atoms: _23  and  _24
REMARK   12  A    between atoms: _27  and  _29
REMARK   13  A    between atoms: _29  and  _30
REMARK   14  A    between atoms: _29  and  _32
REMARK   15  A    between atoms: _32  and  _33
REMARK   16  A    between atoms: _33  and  _34
REMARK   17  A    between atoms: _34  and  _35
REMARK   18  A    between atoms: _35  and  _36
REMARK   19  A    between atoms: _40  and  _42
REMARK   20  A    between atoms: _42  and  _43
REMARK   21  A    between atoms: _45  and  _47
REMARK   22  A    between atoms: _47  and  _48
REMARK   23  A    between atoms: _51  and  _53
REMARK   24  A    between atoms: _53  and  _54
REMARK   25  A    between atoms: _53  and  _56
REMARK   26  A    between atoms: _59  and  _61
REMARK   27  A    between atoms: _61  and  _62
REMARK   28  A    between atoms: _61  and  _64
REMARK   29  A    between atoms: _64  and  _65
REMARK   30  A    between atoms: _65  and  _66
REMARK   31  A    between atoms: _68  and  _70
REMARK   32  A    between atoms: _70  and  _71
REMARK   33  A    between atoms: _74  and  _76
REMARK   34  A    between atoms: _76  and  _77
REMARK   35  A    between atoms: _76  and  _79
REMARK   36  A    between atoms: _82  and  _84
REMARK   37  A    between atoms: _84  and  _85
REMARK   38  A    between atoms: _84  and  _87
REMARK   39  A    between atoms: _87  and  _88
REMARK   40  A    between atoms: _90  and  _92
REMARK   41  A    between atoms: _92  and  _93
REMARK   42  A    between atoms: _92  and  _95
REMARK   43  A    between atoms: _95  and  _96
REMARK   44  A    between atoms: _98  and  _100
REMARK   45  A    between atoms: _100  and  _101
REMARK   46  A    between atoms: _100  and  _103
REMARK   47  A    between atoms: _103  and  _104
REMARK   48  A    between atoms: _109  and  _110
REMARK   49  A    between atoms: _112  and  _114
REMARK   50  A    between atoms: _114  and  _115
REMARK   51  A    between atoms: _117  and  _119
REMARK   52  A    between atoms: _119  and  _120
REMARK   53  A    between atoms: _119  and  _122
REMARK   54  A    between atoms: _125  and  _127
REMARK   55  A    between atoms: _127  and  _128
REMARK   56  A    between atoms: _127  and  _130
REMARK   57  A    between atoms: _130  and  _131
REMARK   58  A    between atoms: _131  and  _132
REMARK   59  A    between atoms: _132  and  _133
REMARK   60  A    between atoms: _142  and  _144
REMARK   61  A    between atoms: _144  and  _145
REMARK   62  A    between atoms: _144  and  _147
REMARK   63  A    between atoms: _147  and  _148
REMARK   64  A    between atoms: _151  and  _153
REMARK   65  A    between atoms: _153  and  _154
REMARK   66  A    between atoms: _153  and  _156
REMARK   67  A    between atoms: _156  and  _157
REMARK   68  A    between atoms: _157  and  _158
REMARK   69  A    between atoms: _161  and  _163
REMARK   70  A    between atoms: _163  and  _164
REMARK   71  A    between atoms: _163  and  _166
REMARK   72  A    between atoms: _166  and  _167
REMARK   73  A    between atoms: _170  and  _172
REMARK   74  A    between atoms: _172  and  _173
REMARK   75  A    between atoms: _172  and  _175
REMARK   76  A    between atoms: _178  and  _180
REMARK   77  A    between atoms: _180  and  _181
REMARK   78  A    between atoms: _180  and  _183
REMARK   79  A    between atoms: _186  and  _188
REMARK   80  A    between atoms: _188  and  _189
REMARK   81  A    between atoms: _188  and  _191
REMARK   82  A    between atoms: _191  and  _192
REMARK   83  A    between atoms: _195  and  _197
REMARK   84  A    between atoms: _197  and  _198
REMARK   85  A    between atoms: _197  and  _200
REMARK   86  A    between atoms: _200  and  _201
REMARK   87  A    between atoms: _203  and  _205
REMARK   88  A    between atoms: _205  and  _206
REMARK   89  A    between atoms: _208  and  _210
REMARK   90  A    between atoms: _210  and  _211
REMARK   91  A    between atoms: _210  and  _213
REMARK   92  A    between atoms: _213  and  _214
REMARK   93  A    between atoms: _217  and  _219
REMARK   94  A    between atoms: _219  and  _220
REMARK   95  A    between atoms: _219  and  _222
REMARK   96  A    between atoms: _222  and  _223
REMARK   97  A    between atoms: _226  and  _228
REMARK   98  A    between atoms: _228  and  _229
REMARK   99  A    between atoms: _228  and  _231
REMARK  100  A    between atoms: _231  and  _232
REMARK  101  A    between atoms: _235  and  _237
REMARK  102  A    between atoms: _237  and  _238
REMARK  103  A    between atoms: _237  and  _240
REMARK  104  A    between atoms: _240  and  _241
REMARK  105  A    between atoms: _243  and  _245
REMARK  106  A    between atoms: _245  and  _246
REMARK  107  A    between atoms: _245  and  _248
REMARK  108  A    between atoms: _248  and  _249
REMARK  109  A    between atoms: _259  and  _261
REMARK  110  A    between atoms: _261  and  _262
REMARK  111  A    between atoms: _261  and  _264
REMARK  112  A    between atoms: _264  and  _265
REMARK  113  A    between atoms: _268  and  _270
REMARK  114  A    between atoms: _270  and  _271
REMARK  115  A    between atoms: _270  and  _273
REMARK  116  A    between atoms: _273  and  _274
REMARK  117  A    between atoms: _277  and  _279
REMARK  118  A    between atoms: _279  and  _280
REMARK  119  A    between atoms: _279  and  _282
REMARK  120  A    between atoms: _282  and  _283
REMARK  121  A    between atoms: _283  and  _284
REMARK  122  A    between atoms: _284  and  _285
REMARK  123  A    between atoms: _285  and  _286
REMARK  124  A    between atoms: _290  and  _292
REMARK  125  A    between atoms: _292  and  _293
REMARK  126  A    between atoms: _292  and  _295
REMARK  127  A    between atoms: _295  and  _296
REMARK  128  A    between atoms: _299  and  _301
REMARK  129  A    between atoms: _301  and  _302
REMARK  130  A    between atoms: _305  and  _307
REMARK  131  A    between atoms: _307  and  _308
REMARK  132  A    between atoms: _311  and  _313
REMARK  133  A    between atoms: _313  and  _314
REMARK  134  A    between atoms: _313  and  _316
REMARK  135  A    between atoms: _316  and  _317
REMARK  136  A    between atoms: _321  and  _322
REMARK  137  A    between atoms: _327  and  _329
REMARK  138  A    between atoms: _329  and  _330
REMARK  139  A    between atoms: _329  and  _332
REMARK  140  A    between atoms: _332  and  _333
REMARK  141  A    between atoms: _338  and  _340
REMARK  142  A    between atoms: _340  and  _341
REMARK  143  A    between atoms: _340  and  _343
REMARK  144  A    between atoms: _343  and  _344
REMARK  145  A    between atoms: _347  and  _349
REMARK  146  A    between atoms: _349  and  _350
REMARK  147  A    between atoms: _349  and  _352
REMARK  148  A    between atoms: _352  and  _353
REMARK  149  A    between atoms: _359  and  _361
REMARK  150  A    between atoms: _361  and  _362
REMARK  151  A    between atoms: _361  and  _364
REMARK  152  A    between atoms: _367  and  _369
REMARK  153  A    between atoms: _369  and  _370
REMARK  154  A    between atoms: _369  and  _372
REMARK  155  A    between atoms: _375  and  _377
REMARK  156  A    between atoms: _377  and  _378
REMARK  157  A    between atoms: _380  and  _382
REMARK  158  A    between atoms: _382  and  _383
REMARK  159  A    between atoms: _385  and  _387
REMARK  160  A    between atoms: _387  and  _388
REMARK  161  A    between atoms: _387  and  _390
REMARK  162  A    between atoms: _390  and  _391
REMARK  163  A    between atoms: _394  and  _396
REMARK  164  A    between atoms: _396  and  _397
REMARK  165  A    between atoms: _396  and  _399
REMARK  166  A    between atoms: _399  and  _400
REMARK  167  A    between atoms: _400  and  _402
REMARK  168  A    between atoms: _402  and  MG_565
REMARK  169  A    between atoms: _403  and  _405
REMARK  170  A    between atoms: _405  and  _406
REMARK  171  A    between atoms: _405  and  _408
REMARK  172  A    between atoms: _408  and  _409
REMARK  173  A    between atoms: _414  and  _415
REMARK  174  A    between atoms: _417  and  _419
REMARK  175  A    between atoms: _419  and  _420
REMARK  176  A    between atoms: _419  and  _422
REMARK  177  A    between atoms: _422  and  _423
REMARK  178  A    between atoms: _426  and  _428
REMARK  179  A    between atoms: _428  and  _429
REMARK  180  A    between atoms: _428  and  _431
REMARK  181  A    between atoms: _431  and  _432
REMARK  182  A    between atoms: _432  and  _433
REMARK  183  A    between atoms: _436  and  _438
REMARK  184  A    between atoms: _438  and  _439
REMARK  185  A    between atoms: _438  and  _441
REMARK  186  A    between atoms: _441  and  _442
REMARK  187  A    between atoms: _442  and  _443
REMARK  188  A    between atoms: _443  and  _444
REMARK  189  A    between atoms: _453  and  _455
REMARK  190  A    between atoms: _455  and  _456
REMARK  191  A    between atoms: _455  and  _458
REMARK  192  A    between atoms: _458  and  _459
REMARK  193  A    between atoms: _464  and  _465
REMARK  194  A    between atoms: _467  and  _469
REMARK  195  A    between atoms: _469  and  _470
REMARK  196  A    between atoms: _469  and  _472
REMARK  197  A    between atoms: _472  and  _473
REMARK  198  A    between atoms: _473  and  _474
REMARK  199  A    between atoms: _474  and  _475
REMARK  200  A    between atoms: _484  and  _486
REMARK  201  A    between atoms: _486  and  _487
REMARK  202  A    between atoms: _486  and  _489
REMARK  203  A    between atoms: _489  and  _490
REMARK  204  A    between atoms: _493  and  _495
REMARK  205  A    between atoms: _495  and  _496
REMARK  206  A    between atoms: _498  and  _500
REMARK  207  A    between atoms: _500  and  _501
REMARK  208  A    between atoms: _500  and  _503
REMARK  209  A    between atoms: _503  and  _504
REMARK  210  A    between atoms: _507  and  _509
REMARK  211  A    between atoms: _509  and  _510
REMARK  212  A    between atoms: _509  and  _512
REMARK  213  A    between atoms: _512  and  _513
REMARK  214  A    between atoms: _518  and  _519
REMARK  215  A    between atoms: _521  and  _523
REMARK  216  A    between atoms: _523  and  _524
REMARK  217  A    between atoms: _523  and  _526
REMARK  218  A    between atoms: _526  and  _527
REMARK  219  A    between atoms: _533  and  _535
REMARK  220  A    between atoms: _535  and  _536
REMARK  221  A    between atoms: _535  and  _538
REMARK  222  A    between atoms: _538  and  _539
REMARK  223  A    between atoms: _545  and  _547
REMARK  224  A    between atoms: _547  and  _548
REMARK  225  A    between atoms: _547  and  _550
REMARK  226  A    between atoms: _550  and  _551
REMARK  227  A    between atoms: _554  and  _556
REMARK  228  A    between atoms: _556  and  _557
REMARK  229  A    between atoms: _556  and  _559
REMARK  230  A    between atoms: _559  and  _560
REMARK                            x       y       z     vdW  Elec       q    Type
REMARK                         _______ _______ _______ _____ _____    ______ ____
ROOT
ATOM      1  CA  SER A   4      -0.486   9.222 115.085  0.00  0.00    +0.178 C 
ENDROOT
BRANCH   1   4
ATOM      2  C   VAL A   3      -2.789   8.476 115.267  0.00  0.00    +0.241 C 
ATOM      3  O   VAL A   3      -2.689   8.323 116.486  0.00  0.00    -0.273 OA
ATOM      4  N   SER A   4      -1.789   8.914 114.510  0.00  0.00    -0.295 N 
ATOM      5  H   SER A   4      -1.939   9.039 113.489  0.00  0.00    +0.150 HD
BRANCH   2   6
ATOM      6  CA  VAL A   3      -4.094   8.156 114.550  0.00  0.00    +0.149 C 
BRANCH   6   8
ATOM      7  C   ALA A   2      -5.240   6.024 114.792  0.00  0.00    +0.241 C 
ATOM      8  N   VAL A   3      -4.871   7.188 115.314  0.00  0.00    -0.297 N 
ATOM      9  H   VAL A   3      -5.143   7.414 116.292  0.00  0.00    +0.150 HD
ATOM     10  O   ALA A   2      -4.967   5.690 113.640  0.00  0.00    -0.273 OA
BRANCH   7  11
ATOM     11  CA  ALA A   2      -6.043   5.102 115.697  0.00  0.00    +0.149 C 
ATOM     12  CB  ALA A   2      -5.147   4.035 116.305  0.00  0.00    +0.031 C 
BRANCH  11  15
ATOM     13  C   MET A   1      -8.353   4.373 115.453  0.00  0.00    +0.238 C 
ATOM     14  O   MET A   1      -8.648   4.739 116.592  0.00  0.00    -0.274 OA
ATOM     15  N   ALA A   2      -7.131   4.491 114.948  0.00  0.00    -0.297 N 
ATOM     16  H   ALA A   2      -6.946   4.136 113.988  0.00  0.00    +0.150 HD
BRANCH  13  17
ATOM     17  CA  MET A   1      -9.388   3.716 114.542  0.00  0.00    +0.146 C 
BRANCH  17  18
ATOM     18  N   MET A   1     -10.541   3.244 115.293  0.00  0.00    -0.238 NA
ATOM     19  H   MET A   1     -10.837   3.746 116.155  0.00  0.00    +0.142 HD
ENDBRANCH  17  18
BRANCH  17  20
ATOM     20  CB  MET A   1      -9.824   4.675 113.428  0.00  0.00    +0.038 C 
BRANCH  20  21
ATOM     21  CG  MET A   1     -10.415   5.996 113.884  0.00  0.00    +0.060 C 
BRANCH  21  22
ATOM     22  SD  MET A   1     -11.114   6.908 112.485  0.00  0.00    -0.139 S 
ATOM     23  CE  MET A   1      -9.692   7.033 111.401  0.00  0.00    +0.069 C 
ENDBRANCH  21  22
ENDBRANCH  20  21
ENDBRANCH  17  20
ENDBRANCH  13  17
ENDBRANCH  11  15
ENDBRANCH   7  11
ENDBRANCH   6   8
BRANCH   6  24
ATOM     24  CB  VAL A   3      -4.884   9.457 114.313  0.00  0.00    +0.027 C 
ATOM     25  CG2 VAL A   3      -5.226  10.121 115.635  0.00  0.00    +0.002 C 
ATOM     26  CG1 VAL A   3      -6.149   9.172 113.516  0.00  0.00    +0.002 C 
ENDBRANCH   6  24
ENDBRANCH   2   6
ENDBRANCH   1   4
BRANCH   1  27
ATOM     27  C   SER A   4      -0.525  10.537 115.862  0.00  0.00    +0.243 C 
ATOM     28  N   SER A   5       0.562  10.831 116.564  0.00  0.00    -0.295 N 
ATOM     29  H   SER A   5       1.398  10.217 116.481  0.00  0.00    +0.150 HD
ATOM     30  O   SER A   4      -1.517  11.265 115.828  0.00  0.00    -0.273 OA
BRANCH  28  31
ATOM     31  CA  SER A   5       0.619  11.988 117.447  0.00  0.00    +0.178 C 
BRANCH  31  32
ATOM     32  C   SER A   5       1.326  13.172 116.801  0.00  0.00    +0.243 C 
ATOM     33  N   TYR A   6       1.044  14.370 117.304  0.00  0.00    -0.297 N 
ATOM     34  H   TYR A   6       0.277  14.464 118.000  0.00  0.00    +0.150 HD
ATOM     35  O   SER A   5       2.114  13.006 115.870  0.00  0.00    -0.273 OA
BRANCH  33  36
ATOM     36  CA  TYR A   6       1.790  15.553 116.897  0.00  0.00    +0.153 C 
BRANCH  36  37
ATOM     37  C   TYR A   6       3.112  15.624 117.655  0.00  0.00    +0.241 C 
ATOM     38  N   GLY A   7       3.272  14.734 118.631  0.00  0.00    -0.296 N 
ATOM     39  H   GLY A   7       2.500  14.069 118.839  0.00  0.00    +0.150 HD
ATOM     40  O   TYR A   6       3.969  16.458 117.359  0.00  0.00    -0.273 OA
BRANCH  38  41
ATOM     41  CA  GLY A   7       4.491  14.663 119.414  0.00  0.00    +0.163 C 
BRANCH  41  42
ATOM     42  C   GLY A   7       4.581  15.764 120.450  0.00  0.00    +0.229 C 
ATOM     43  O   GLY A   7       5.326  16.728 120.277  0.00  0.00    -0.286 OA
ENDBRANCH  41  42
ENDBRANCH  38  41
ENDBRANCH  36  37
BRANCH  36  44
ATOM     44  CB  TYR A   6       0.969  16.824 117.127  0.00  0.00    +0.055 C 
BRANCH  44  45
ATOM     45  CG  TYR A   6       0.148  17.237 115.925  0.00  0.00    -0.020 A 
ATOM     46  CD2 TYR A   6      -1.183  16.858 115.801  0.00  0.00    -0.001 A 
ATOM     47  CE2 TYR A   6      -1.933  17.234 114.698  0.00  0.00    +0.036 A 
ATOM     48  CZ  TYR A   6      -1.351  17.997 113.706  0.00  0.00    +0.134 A 
ATOM     49  CE1 TYR A   6      -0.031  18.382 113.807  0.00  0.00    +0.036 A 
ATOM     50  CD1 TYR A   6       0.709  18.002 114.911  0.00  0.00    -0.001 A 
BRANCH  48  51
ATOM     51  OH  TYR A   6      -2.086  18.377 112.606  0.00  0.00    -0.506 OA
ATOM     52  HH  TYR A   6      -1.517  18.915 112.000  0.00  0.00    +0.292 HD
ENDBRANCH  48  51
ENDBRANCH  44  45
ENDBRANCH  36  44
ENDBRANCH  33  36
ENDBRANCH  31  32
BRANCH  31  53
ATOM     53  CB  SER A   5       1.325  11.615 118.754  0.00  0.00    +0.166 C 
BRANCH  53  54
ATOM     54  OG  SER A   5       1.463  12.739 119.605  0.00  0.00    -0.380 OA
ATOM     55  H   SER A   5       1.922  12.466 120.439  0.00  0.00    +0.211 HD
ENDBRANCH  53  54
ENDBRANCH  31  53
ENDBRANCH  28  31
ENDBRANCH   1  27
BRANCH   1  56
ATOM     56  CB  SER A   4       0.589   9.274 113.994  0.00  0.00    +0.166 C 
BRANCH  56  57
ATOM     57  OG  SER A   4       0.233  10.171 112.956  0.00  0.00    -0.380 OA
ATOM     58  H   SER A   4       0.947  10.180 112.270  0.00  0.00    +0.211 HD
ENDBRANCH  56  57
ENDBRANCH   1  56
TORSDOF 25
REMARK  Name = ../refined-set-2016/4rhx/4rhx_pocket.pdb
REMARK  230 active torsions:
REMARK  status: ('A' for Active; 'I' for Inactive)
REMARK    1  A    between atoms: _1  and  _3
REMARK    2  A    between atoms: _3  and  _4
REMARK    3  A    between atoms: _3  and  _6
REMARK    4  A    between atoms: _6  and  _7
REMARK    5  A    between atoms: _10  and  _12
REMARK    6  A    between atoms: _12  and  _13
REMARK    7  A    between atoms: _12  and  _15
REMARK    8  A    between atoms: _18  and  _20
REMARK    9  A    between atoms: _20  and  _21
REMARK   10  A    between atoms: _20  and  _23
REMARK   11  A    between atoms: _23  and  _24
REMARK   12  A    between atoms: _27  and  _29
REMARK   13  A    between atoms: _29  and  _30
REMARK   14  A    between atoms: _29  and  _32
REMARK   15  A    between atoms: _32  and  _33
REMARK   16  A    between atoms: _33  and  _34
REMARK   17  A    between atoms: _34  and  _35
REMARK   18  A    between atoms: _35  and  _36
REMARK   19  A    between atoms: _40  and  _42
REMARK   20  A    between atoms: _42  and  _43
REMARK   21  A    between atoms: _45  and  _47
REMARK   22  A    between atoms: _47  and  _48
REMARK   23  A    between atoms: _51  and  _53
REMARK   24  A    between atoms: _53  and  _54
REMARK   25  A    between atoms: _53  and  _56
REMARK   26  A    between atoms: _59  and  _61
REMARK   27  A    between atoms: _61  and  _62
REMARK   28  A    between atoms: _61  and  _64
REMARK   29  A    between atoms: _64  and  _65
REMARK   30  A    between atoms: _65  and  _66
REMARK   31  A    between atoms: _68  and  _70
REMARK   32  A    between atoms: _70  and  _71
REMARK   33  A    between atoms: _74  and  _76
REMARK   34  A    between atoms: _76  and  _77
REMARK   35  A    between atoms: _76  and  _79
REMARK   36  A    between atoms: _82  and  _84
REMARK   37  A    between atoms: _84  and  _85
REMARK   38  A    between atoms: _84  and  _87
REMARK   39  A    between atoms: _87  and  _88
REMARK   40  A    between atoms: _90  and  _92
REMARK   41  A    between atoms: _92  and  _93
REMARK   42  A    between atoms: _92  and  _95
REMARK   43  A    between atoms: _95  and  _96
REMARK   44  A    between atoms: _98  and  _100
REMARK   45  A    between atoms: _100  and  _101
REMARK   46  A    between atoms: _100  and  _103
REMARK   47  A    between atoms: _103  and  _104
REMARK   48  A    between atoms: _109  and  _110
REMARK   49  A    between atoms: _112  and  _114
REMARK   50  A    between atoms: _114  and  _115
REMARK   51  A    between atoms: _117  and  _119
REMARK   52  A    between atoms: _119  and  _120
REMARK   53  A    between atoms: _119  and  _122
REMARK   54  A    between atoms: _125  and  _127
REMARK   55  A    between atoms: _127  and  _128
REMARK   56  A    between atoms: _127  and  _130
REMARK   57  A    between atoms: _130  and  _131
REMARK   58  A    between atoms: _131  and  _132
REMARK   59  A    between atoms: _132  and  _133
REMARK   60  A    between atoms: _142  and  _144
REMARK   61  A    between atoms: _144  and  _145
REMARK   62  A    between atoms: _144  and  _147
REMARK   63  A    between atoms: _147  and  _148
REMARK   64  A    between atoms: _151  and  _153
REMARK   65  A    between atoms: _153  and  _154
REMARK   66  A    between atoms: _153  and  _156
REMARK   67  A    between atoms: _156  and  _157
REMARK   68  A    between atoms: _157  and  _158
REMARK   69  A    between atoms: _161  and  _163
REMARK   70  A    between atoms: _163  and  _164
REMARK   71  A    between atoms: _163  and  _166
REMARK   72  A    between atoms: _166  and  _167
REMARK   73  A    between atoms: _170  and  _172
REMARK   74  A    between atoms: _172  and  _173
REMARK   75  A    between atoms: _172  and  _175
REMARK   76  A    between atoms: _178  and  _180
REMARK   77  A    between atoms: _180  and  _181
REMARK   78  A    between atoms: _180  and  _183
REMARK   79  A    between atoms: _186  and  _188
REMARK   80  A    between atoms: _188  and  _189
REMARK   81  A    between atoms: _188  and  _191
REMARK   82  A    between atoms: _191  and  _192
REMARK   83  A    between atoms: _195  and  _197
REMARK   84  A    between atoms: _197  and  _198
REMARK   85  A    between atoms: _197  and  _200
REMARK   86  A    between atoms: _200  and  _201
REMARK   87  A    between atoms: _203  and  _205
REMARK   88  A    between atoms: _205  and  _206
REMARK   89  A    between atoms: _208  and  _210
REMARK   90  A    between atoms: _210  and  _211
REMARK   91  A    between atoms: _210  and  _213
REMARK   92  A    between atoms: _213  and  _214
REMARK   93  A    between atoms: _217  and  _219
REMARK   94  A    between atoms: _219  and  _220
REMARK   95  A    between atoms: _219  and  _222
REMARK   96  A    between atoms: _222  and  _223
REMARK   97  A    between atoms: _226  and  _228
REMARK   98  A    between atoms: _228  and  _229
REMARK   99  A    between atoms: _228  and  _231
REMARK  100  A    between atoms: _231  and  _232
REMARK  101  A    between atoms: _235  and  _237
REMARK  102  A    between atoms: _237  and  _238
REMARK  103  A    between atoms: _237  and  _240
REMARK  104  A    between atoms: _240  and  _241
REMARK  105  A    between atoms: _243  and  _245
REMARK  106  A    between atoms: _245  and  _246
REMARK  107  A    between atoms: _245  and  _248
REMARK  108  A    between atoms: _248  and  _249
REMARK  109  A    between atoms: _259  and  _261
REMARK  110  A    between atoms: _261  and  _262
REMARK  111  A    between atoms: _261  and  _264
REMARK  112  A    between atoms: _264  and  _265
REMARK  113  A    between atoms: _268  and  _270
REMARK  114  A    between atoms: _270  and  _271
REMARK  115  A    between atoms: _270  and  _273
REMARK  116  A    between atoms: _273  and  _274
REMARK  117  A    between atoms: _277  and  _279
REMARK  118  A    between atoms: _279  and  _280
REMARK  119  A    between atoms: _279  and  _282
REMARK  120  A    between atoms: _282  and  _283
REMARK  121  A    between atoms: _283  and  _284
REMARK  122  A    between atoms: _284  and  _285
REMARK  123  A    between atoms: _285  and  _286
REMARK  124  A    between atoms: _290  and  _292
REMARK  125  A    between atoms: _292  and  _293
REMARK  126  A    between atoms: _292  and  _295
REMARK  127  A    between atoms: _295  and  _296
REMARK  128  A    between atoms: _299  and  _301
REMARK  129  A    between atoms: _301  and  _302
REMARK  130  A    between atoms: _305  and  _307
REMARK  131  A    between atoms: _307  and  _308
REMARK  132  A    between atoms: _311  and  _313
REMARK  133  A    between atoms: _313  and  _314
REMARK  134  A    between atoms: _313  and  _316
REMARK  135  A    between atoms: _316  and  _317
REMARK  136  A    between atoms: _321  and  _322
REMARK  137  A    between atoms: _327  and  _329
REMARK  138  A    between atoms: _329  and  _330
REMARK  139  A    between atoms: _329  and  _332
REMARK  140  A    between atoms: _332  and  _333
REMARK  141  A    between atoms: _338  and  _340
REMARK  142  A    between atoms: _340  and  _341
REMARK  143  A    between atoms: _340  and  _343
REMARK  144  A    between atoms: _343  and  _344
REMARK  145  A    between atoms: _347  and  _349
REMARK  146  A    between atoms: _349  and  _350
REMARK  147  A    between atoms: _349  and  _352
REMARK  148  A    between atoms: _352  and  _353
REMARK  149  A    between atoms: _359  and  _361
REMARK  150  A    between atoms: _361  and  _362
REMARK  151  A    between atoms: _361  and  _364
REMARK  152  A    between atoms: _367  and  _369
REMARK  153  A    between atoms: _369  and  _370
REMARK  154  A    between atoms: _369  and  _372
REMARK  155  A    between atoms: _375  and  _377
REMARK  156  A    between atoms: _377  and  _378
REMARK  157  A    between atoms: _380  and  _382
REMARK  158  A    between atoms: _382  and  _383
REMARK  159  A    between atoms: _385  and  _387
REMARK  160  A    between atoms: _387  and  _388
REMARK  161  A    between atoms: _387  and  _390
REMARK  162  A    between atoms: _390  and  _391
REMARK  163  A    between atoms: _394  and  _396
REMARK  164  A    between atoms: _396  and  _397
REMARK  165  A    between atoms: _396  and  _399
REMARK  166  A    between atoms: _399  and  _400
REMARK  167  A    between atoms: _400  and  _402
REMARK  168  A    between atoms: _402  and  MG_565
REMARK  169  A    between atoms: _403  and  _405
REMARK  170  A    between atoms: _405  and  _406
REMARK  171  A    between atoms: _405  and  _408
REMARK  172  A    between atoms: _408  and  _409
REMARK  173  A    between atoms: _414  and  _415
REMARK  174  A    between atoms: _417  and  _419
REMARK  175  A    between atoms: _419  and  _420
REMARK  176  A    between atoms: _419  and  _422
REMARK  177  A    between atoms: _422  and  _423
REMARK  178  A    between atoms: _426  and  _428
REMARK  179  A    between atoms: _428  and  _429
REMARK  180  A    between atoms: _428  and  _431
REMARK  181  A    between atoms: _431  and  _432
REMARK  182  A    between atoms: _432  and  _433
REMARK  183  A    between atoms: _436  and  _438
REMARK  184  A    between atoms: _438  and  _439
REMARK  185  A    between atoms: _438  and  _441
REMARK  186  A    between atoms: _441  and  _442
REMARK  187  A    between atoms: _442  and  _443
REMARK  188  A    between atoms: _443  and  _444
REMARK  189  A    between atoms: _453  and  _455
REMARK  190  A    between atoms: _455  and  _456
REMARK  191  A    between atoms: _455  and  _458
REMARK  192  A    between atoms: _458  and  _459
REMARK  193  A    between atoms: _464  and  _465
REMARK  194  A    between atoms: _467  and  _469
REMARK  195  A    between atoms: _469  and  _470
REMARK  196  A    between atoms: _469  and  _472
REMARK  197  A    between atoms: _472  and  _473
REMARK  198  A    between atoms: _473  and  _474
REMARK  199  A    between atoms: _474  and  _475
REMARK  200  A    between atoms: _484  and  _486
REMARK  201  A    between atoms: _486  and  _487
REMARK  202  A    between atoms: _486  and  _489
REMARK  203  A    between atoms: _489  and  _490
REMARK  204  A    between atoms: _493  and  _495
REMARK  205  A    between atoms: _495  and  _496
REMARK  206  A    between atoms: _498  and  _500
REMARK  207  A    between atoms: _500  and  _501
REMARK  208  A    between atoms: _500  and  _503
REMARK  209  A    between atoms: _503  and  _504
REMARK  210  A    between atoms: _507  and  _509
REMARK  211  A    between atoms: _509  and  _510
REMARK  212  A    between atoms: _509  and  _512
REMARK  213  A    between atoms: _512  and  _513
REMARK  214  A    between atoms: _518  and  _519
REMARK  215  A    between atoms: _521  and  _523
REMARK  216  A    between atoms: _523  and  _524
REMARK  217  A    between atoms: _523  and  _526
REMARK  218  A    between atoms: _526  and  _527
REMARK  219  A    between atoms: _533  and  _535
REMARK  220  A    between atoms: _535  and  _536
REMARK  221  A    between atoms: _535  and  _538
REMARK  222  A    between atoms: _538  and  _539
REMARK  223  A    between atoms: _545  and  _547
REMARK  224  A    between atoms: _547  and  _548
REMARK  225  A    between atoms: _547  and  _550
REMARK  226  A    between atoms: _550  and  _551
REMARK  227  A    between atoms: _554  and  _556
REMARK  228  A    between atoms: _556  and  _557
REMARK  229  A    between atoms: _556  and  _559
REMARK  230  A    between atoms: _559  and  _560
REMARK                            x       y       z     vdW  Elec       q    Type
REMARK                         _______ _______ _______ _____ _____    ______ ____
ROOT
ATOM      1  CA  ARG A   2      -1.557   9.595 109.680  0.00  0.00    +0.137 C 
ENDROOT
BRANCH   1   3
ATOM      2  C   VAL A   1      -0.822  11.876 110.009  0.00  0.00    +0.238 C 
ATOM      3  N   ARG A   2      -1.114  10.689 110.525  0.00  0.00    -0.298 N 
ATOM      4  H   ARG A   2      -1.024  10.540 111.550  0.00  0.00    +0.150 HD
ATOM      5  O   VAL A   1      -1.040  12.171 108.833  0.00  0.00    -0.274 OA
BRANCH   2   6
ATOM      6  CA  VAL A   1      -0.166  12.869 110.955  0.00  0.00    +0.145 C 
BRANCH   6   7
ATOM      7  CB  VAL A   1      -1.122  14.028 111.260  0.00  0.00    +0.025 C 
ATOM      8  CG2 VAL A   1      -2.326  13.525 112.045  0.00  0.00    +0.002 C 
ATOM      9  CG1 VAL A   1      -0.394  15.114 112.034  0.00  0.00    +0.002 C 
ENDBRANCH   6   7
BRANCH   6  10
ATOM     10  N   VAL A   1       1.071  13.323 110.340  0.00  0.00    -0.238 NA
ATOM     11  H   VAL A   1       1.173  14.321 110.065  0.00  0.00    +0.142 HD
ENDBRANCH   6  10
ENDBRANCH   2   6
ENDBRANCH   1   3
BRANCH   1  12
ATOM     12  C   ARG A   2      -2.402   8.598 110.452  0.00  0.00    +0.227 C 
ATOM     13  O   ARG A   2      -2.394   8.572 111.684  0.00  0.00    -0.286 OA
ENDBRANCH   1  12
BRANCH   1  14
ATOM     14  CB  ARG A   2      -0.351   8.882 109.070  0.00  0.00    +0.031 C 
BRANCH  14  15
ATOM     15  CG  ARG A   2       0.507   8.170 110.106  0.00  0.00    +0.045 C 
BRANCH  15  16
ATOM     16  CD  ARG A   2       1.874   7.798 109.558  0.00  0.00    +0.174 C 
BRANCH  16  17
ATOM     17  NE  ARG A   2       2.682   7.106 110.558  0.00  0.00    -0.265 N 
ATOM     18  CZ  ARG A   2       3.374   7.716 111.516  0.00  0.00    +0.342 C 
ATOM     19  NH2 ARG A   2       4.083   7.003 112.381  0.00  0.00    -0.292 N 
ATOM     20 HH21 ARG A   2       4.624   7.481 113.130  0.00  0.00    +0.255 HD
ATOM     21 HH22 ARG A   2       4.098   5.965 112.311  0.00  0.00    +0.255 HD
ATOM     22  NH1 ARG A   2       3.358   9.039 111.611  0.00  0.00    -0.292 N 
ATOM     23 HH11 ARG A   2       3.900   9.513 112.361  0.00  0.00    +0.255 HD
ATOM     24 HH12 ARG A   2       2.803   9.602 110.935  0.00  0.00    +0.255 HD
ATOM     25  HE  ARG A   2       2.719   6.067 110.519  0.00  0.00    +0.259 HD
ENDBRANCH  16  17
ENDBRANCH  15  16
ENDBRANCH  14  15
ENDBRANCH   1  14
TORSDOF 9
REMARK  Name = ../refined-set-2016/4rhx/4rhx_pocket.pdb
REMARK  230 active torsions:
REMARK  status: ('A' for Active; 'I' for Inactive)
REMARK    1  A    between atoms: _1  and  _3
REMARK    2  A    between atoms: _3  and  _4
REMARK    3  A    between atoms: _3  and  _6
REMARK    4  A    between atoms: _6  and  _7
REMARK    5  A    between atoms: _10  and  _12
REMARK    6  A    between atoms: _12  and  _13
REMARK    7  A    between atoms: _12  and  _15
REMARK    8  A    between atoms: _18  and  _20
REMARK    9  A    between atoms: _20  and  _21
REMARK   10  A    between atoms: _20  and  _23
REMARK   11  A    between atoms: _23  and  _24
REMARK   12  A    between atoms: _27  and  _29
REMARK   13  A    between atoms: _29  and  _30
REMARK   14  A    between atoms: _29  and  _32
REMARK   15  A    between atoms: _32  and  _33
REMARK   16  A    between atoms: _33  and  _34
REMARK   17  A    between atoms: _34  and  _35
REMARK   18  A    between atoms: _35  and  _36
REMARK   19  A    between atoms: _40  and  _42
REMARK   20  A    between atoms: _42  and  _43
REMARK   21  A    between atoms: _45  and  _47
REMARK   22  A    between atoms: _47  and  _48
REMARK   23  A    between atoms: _51  and  _53
REMARK   24  A    between atoms: _53  and  _54
REMARK   25  A    between atoms: _53  and  _56
REMARK   26  A    between atoms: _59  and  _61
REMARK   27  A    between atoms: _61  and  _62
REMARK   28  A    between atoms: _61  and  _64
REMARK   29  A    between atoms: _64  and  _65
REMARK   30  A    between atoms: _65  and  _66
REMARK   31  A    between atoms: _68  and  _70
REMARK   32  A    between atoms: _70  and  _71
REMARK   33  A    between atoms: _74  and  _76
REMARK   34  A    between atoms: _76  and  _77
REMARK   35  A    between atoms: _76  and  _79
REMARK   36  A    between atoms: _82  and  _84
REMARK   37  A    between atoms: _84  and  _85
REMARK   38  A    between atoms: _84  and  _87
REMARK   39  A    between atoms: _87  and  _88
REMARK   40  A    between atoms: _90  and  _92
REMARK   41  A    between atoms: _92  and  _93
REMARK   42  A    between atoms: _92  and  _95
REMARK   43  A    between atoms: _95  and  _96
REMARK   44  A    between atoms: _98  and  _100
REMARK   45  A    between atoms: _100  and  _101
REMARK   46  A    between atoms: _100  and  _103
REMARK   47  A    between atoms: _103  and  _104
REMARK   48  A    between atoms: _109  and  _110
REMARK   49  A    between atoms: _112  and  _114
REMARK   50  A    between atoms: _114  and  _115
REMARK   51  A    between atoms: _117  and  _119
REMARK   52  A    between atoms: _119  and  _120
REMARK   53  A    between atoms: _119  and  _122
REMARK   54  A    between atoms: _125  and  _127
REMARK   55  A    between atoms: _127  and  _128
REMARK   56  A    between atoms: _127  and  _130
REMARK   57  A    between atoms: _130  and  _131
REMARK   58  A    between atoms: _131  and  _132
REMARK   59  A    between atoms: _132  and  _133
REMARK   60  A    between atoms: _142  and  _144
REMARK   61  A    between atoms: _144  and  _145
REMARK   62  A    between atoms: _144  and  _147
REMARK   63  A    between atoms: _147  and  _148
REMARK   64  A    between atoms: _151  and  _153
REMARK   65  A    between atoms: _153  and  _154
REMARK   66  A    between atoms: _153  and  _156
REMARK   67  A    between atoms: _156  and  _157
REMARK   68  A    between atoms: _157  and  _158
REMARK   69  A    between atoms: _161  and  _163
REMARK   70  A    between atoms: _163  and  _164
REMARK   71  A    between atoms: _163  and  _166
REMARK   72  A    between atoms: _166  and  _167
REMARK   73  A    between atoms: _170  and  _172
REMARK   74  A    between atoms: _172  and  _173
REMARK   75  A    between atoms: _172  and  _175
REMARK   76  A    between atoms: _178  and  _180
REMARK   77  A    between atoms: _180  and  _181
REMARK   78  A    between atoms: _180  and  _183
REMARK   79  A    between atoms: _186  and  _188
REMARK   80  A    between atoms: _188  and  _189
REMARK   81  A    between atoms: _188  and  _191
REMARK   82  A    between atoms: _191  and  _192
REMARK   83  A    between atoms: _195  and  _197
REMARK   84  A    between atoms: _197  and  _198
REMARK   85  A    between atoms: _197  and  _200
REMARK   86  A    between atoms: _200  and  _201
REMARK   87  A    between atoms: _203  and  _205
REMARK   88  A    between atoms: _205  and  _206
REMARK   89  A    between atoms: _208  and  _210
REMARK   90  A    between atoms: _210  and  _211
REMARK   91  A    between atoms: _210  and  _213
REMARK   92  A    between atoms: _213  and  _214
REMARK   93  A    between atoms: _217  and  _219
REMARK   94  A    between atoms: _219  and  _220
REMARK   95  A    between atoms: _219  and  _222
REMARK   96  A    between atoms: _222  and  _223
REMARK   97  A    between atoms: _226  and  _228
REMARK   98  A    between atoms: _228  and  _229
REMARK   99  A    between atoms: _228  and  _231
REMARK  100  A    between atoms: _231  and  _232
REMARK  101  A    between atoms: _235  and  _237
REMARK  102  A    between atoms: _237  and  _238
REMARK  103  A    between atoms: _237  and  _240
REMARK  104  A    between atoms: _240  and  _241
REMARK  105  A    between atoms: _243  and  _245
REMARK  106  A    between atoms: _245  and  _246
REMARK  107  A    between atoms: _245  and  _248
REMARK  108  A    between atoms: _248  and  _249
REMARK  109  A    between atoms: _259  and  _261
REMARK  110  A    between atoms: _261  and  _262
REMARK  111  A    between atoms: _261  and  _264
REMARK  112  A    between atoms: _264  and  _265
REMARK  113  A    between atoms: _268  and  _270
REMARK  114  A    between atoms: _270  and  _271
REMARK  115  A    between atoms: _270  and  _273
REMARK  116  A    between atoms: _273  and  _274
REMARK  117  A    between atoms: _277  and  _279
REMARK  118  A    between atoms: _279  and  _280
REMARK  119  A    between atoms: _279  and  _282
REMARK  120  A    between atoms: _282  and  _283
REMARK  121  A    between atoms: _283  and  _284
REMARK  122  A    between atoms: _284  and  _285
REMARK  123  A    between atoms: _285  and  _286
REMARK  124  A    between atoms: _290  and  _292
REMARK  125  A    between atoms: _292  and  _293
REMARK  126  A    between atoms: _292  and  _295
REMARK  127  A    between atoms: _295  and  _296
REMARK  128  A    between atoms: _299  and  _301
REMARK  129  A    between atoms: _301  and  _302
REMARK  130  A    between atoms: _305  and  _307
REMARK  131  A    between atoms: _307  and  _308
REMARK  132  A    between atoms: _311  and  _313
REMARK  133  A    between atoms: _313  and  _314
REMARK  134  A    between atoms: _313  and  _316
REMARK  135  A    between atoms: _316  and  _317
REMARK  136  A    between atoms: _321  and  _322
REMARK  137  A    between atoms: _327  and  _329
REMARK  138  A    between atoms: _329  and  _330
REMARK  139  A    between atoms: _329  and  _332
REMARK  140  A    between atoms: _332  and  _333
REMARK  141  A    between atoms: _338  and  _340
REMARK  142  A    between atoms: _340  and  _341
REMARK  143  A    between atoms: _340  and  _343
REMARK  144  A    between atoms: _343  and  _344
REMARK  145  A    between atoms: _347  and  _349
REMARK  146  A    between atoms: _349  and  _350
REMARK  147  A    between atoms: _349  and  _352
REMARK  148  A    between atoms: _352  and  _353
REMARK  149  A    between atoms: _359  and  _361
REMARK  150  A    between atoms: _361  and  _362
REMARK  151  A    between atoms: _361  and  _364
REMARK  152  A    between atoms: _367  and  _369
REMARK  153  A    between atoms: _369  and  _370
REMARK  154  A    between atoms: _369  and  _372
REMARK  155  A    between atoms: _375  and  _377
REMARK  156  A    between atoms: _377  and  _378
REMARK  157  A    between atoms: _380  and  _382
REMARK  158  A    between atoms: _382  and  _383
REMARK  159  A    between atoms: _385  and  _387
REMARK  160  A    between atoms: _387  and  _388
REMARK  161  A    between atoms: _387  and  _390
REMARK  162  A    between atoms: _390  and  _391
REMARK  163  A    between atoms: _394  and  _396
REMARK  164  A    between atoms: _396  and  _397
REMARK  165  A    between atoms: _396  and  _399
REMARK  166  A    between atoms: _399  and  _400
REMARK  167  A    between atoms: _400  and  _402
REMARK  168  A    between atoms: _402  and  MG_565
REMARK  169  A    between atoms: _403  and  _405
REMARK  170  A    between atoms: _405  and  _406
REMARK  171  A    between atoms: _405  and  _408
REMARK  172  A    between atoms: _408  and  _409
REMARK  173  A    between atoms: _414  and  _415
REMARK  174  A    between atoms: _417  and  _419
REMARK  175  A    between atoms: _419  and  _420
REMARK  176  A    between atoms: _419  and  _422
REMARK  177  A    between atoms: _422  and  _423
REMARK  178  A    between atoms: _426  and  _428
REMARK  179  A    between atoms: _428  and  _429
REMARK  180  A    between atoms: _428  and  _431
REMARK  181  A    between atoms: _431  and  _432
REMARK  182  A    between atoms: _432  and  _433
REMARK  183  A    between atoms: _436  and  _438
REMARK  184  A    between atoms: _438  and  _439
REMARK  185  A    between atoms: _438  and  _441
REMARK  186  A    between atoms: _441  and  _442
REMARK  187  A    between atoms: _442  and  _443
REMARK  188  A    between atoms: _443  and  _444
REMARK  189  A    between atoms: _453  and  _455
REMARK  190  A    between atoms: _455  and  _456
REMARK  191  A    between atoms: _455  and  _458
REMARK  192  A    between atoms: _458  and  _459
REMARK  193  A    between atoms: _464  and  _465
REMARK  194  A    between atoms: _467  and  _469
REMARK  195  A    between atoms: _469  and  _470
REMARK  196  A    between atoms: _469  and  _472
REMARK  197  A    between atoms: _472  and  _473
REMARK  198  A    between atoms: _473  and  _474
REMARK  199  A    between atoms: _474  and  _475
REMARK  200  A    between atoms: _484  and  _486
REMARK  201  A    between atoms: _486  and  _487
REMARK  202  A    between atoms: _486  and  _489
REMARK  203  A    between atoms: _489  and  _490
REMARK  204  A    between atoms: _493  and  _495
REMARK  205  A    between atoms: _495  and  _496
REMARK  206  A    between atoms: _498  and  _500
REMARK  207  A    between atoms: _500  and  _501
REMARK  208  A    between atoms: _500  and  _503
REMARK  209  A    between atoms: _503  and  _504
REMARK  210  A    between atoms: _507  and  _509
REMARK  211  A    between atoms: _509  and  _510
REMARK  212  A    between atoms: _509  and  _512
REMARK  213  A    between atoms: _512  and  _513
REMARK  214  A    between atoms: _518  and  _519
REMARK  215  A    between atoms: _521  and  _523
REMARK  216  A    between atoms: _523  and  _524
REMARK  217  A    between atoms: _523  and  _526
REMARK  218  A    between atoms: _526  and  _527
REMARK  219  A    between atoms: _533  and  _535
REMARK  220  A    between atoms: _535  and  _536
REMARK  221  A    between atoms: _535  and  _538
REMARK  222  A    between atoms: _538  and  _539
REMARK  223  A    between atoms: _545  and  _547
REMARK  224  A    between atoms: _547  and  _548
REMARK  225  A    between atoms: _547  and  _550
REMARK  226  A    between atoms: _550  and  _551
REMARK  227  A    between atoms: _554  and  _556
REMARK  228  A    between atoms: _556  and  _557
REMARK  229  A    between atoms: _556  and  _559
REMARK  230  A    between atoms: _559  and  _560
REMARK                            x       y       z     vdW  Elec       q    Type
REMARK                         _______ _______ _______ _____ _____    ______ ____
ROOT
ATOM      1  CA  LEU A   1      -2.195   3.971 112.334  0.00  0.00    +0.133 C 
ENDROOT
BRANCH   1   2
ATOM      2  N   LEU A   1      -2.966   5.131 111.903  0.00  0.00    -0.239 NA
ATOM      3  H   LEU A   1      -3.500   5.676 112.609  0.00  0.00    +0.142 HD
ENDBRANCH   1   2
BRANCH   1   4
ATOM      4  C   LEU A   1      -3.058   2.724 112.223  0.00  0.00    +0.224 C 
ATOM      5  O   LEU A   1      -2.571   1.632 111.930  0.00  0.00    -0.287 OA
ENDBRANCH   1   4
BRANCH   1   6
ATOM      6  CB  LEU A   1      -1.698   4.152 113.768  0.00  0.00    +0.025 C 
BRANCH   6   7
ATOM      7  CG  LEU A   1      -0.770   5.342 114.012  0.00  0.00    +0.002 C 
ATOM      8  CD2 LEU A   1      -0.420   5.448 115.488  0.00  0.00    +0.000 C 
ATOM      9  CD1 LEU A   1       0.488   5.216 113.168  0.00  0.00    +0.000 C 
ENDBRANCH   6   7
ENDBRANCH   1   6
TORSDOF 4
REMARK  Name = ../refined-set-2016/4rhx/4rhx_pocket.pdb
REMARK  230 active torsions:
REMARK  status: ('A' for Active; 'I' for Inactive)
REMARK    1  A    between atoms: _1  and  _3
REMARK    2  A    between atoms: _3  and  _4
REMARK    3  A    between atoms: _3  and  _6
REMARK    4  A    between atoms: _6  and  _7
REMARK    5  A    between atoms: _10  and  _12
REMARK    6  A    between atoms: _12  and  _13
REMARK    7  A    between atoms: _12  and  _15
REMARK    8  A    between atoms: _18  and  _20
REMARK    9  A    between atoms: _20  and  _21
REMARK   10  A    between atoms: _20  and  _23
REMARK   11  A    between atoms: _23  and  _24
REMARK   12  A    between atoms: _27  and  _29
REMARK   13  A    between atoms: _29  and  _30
REMARK   14  A    between atoms: _29  and  _32
REMARK   15  A    between atoms: _32  and  _33
REMARK   16  A    between atoms: _33  and  _34
REMARK   17  A    between atoms: _34  and  _35
REMARK   18  A    between atoms: _35  and  _36
REMARK   19  A    between atoms: _40  and  _42
REMARK   20  A    between atoms: _42  and  _43
REMARK   21  A    between atoms: _45  and  _47
REMARK   22  A    between atoms: _47  and  _48
REMARK   23  A    between atoms: _51  and  _53
REMARK   24  A    between atoms: _53  and  _54
REMARK   25  A    between atoms: _53  and  _56
REMARK   26  A    between atoms: _59  and  _61
REMARK   27  A    between atoms: _61  and  _62
REMARK   28  A    between atoms: _61  and  _64
REMARK   29  A    between atoms: _64  and  _65
REMARK   30  A    between atoms: _65  and  _66
REMARK   31  A    between atoms: _68  and  _70
REMARK   32  A    between atoms: _70  and  _71
REMARK   33  A    between atoms: _74  and  _76
REMARK   34  A    between atoms: _76  and  _77
REMARK   35  A    between atoms: _76  and  _79
REMARK   36  A    between atoms: _82  and  _84
REMARK   37  A    between atoms: _84  and  _85
REMARK   38  A    between atoms: _84  and  _87
REMARK   39  A    between atoms: _87  and  _88
REMARK   40  A    between atoms: _90  and  _92
REMARK   41  A    between atoms: _92  and  _93
REMARK   42  A    between atoms: _92  and  _95
REMARK   43  A    between atoms: _95  and  _96
REMARK   44  A    between atoms: _98  and  _100
REMARK   45  A    between atoms: _100  and  _101
REMARK   46  A    between atoms: _100  and  _103
REMARK   47  A    between atoms: _103  and  _104
REMARK   48  A    between atoms: _109  and  _110
REMARK   49  A    between atoms: _112  and  _114
REMARK   50  A    between atoms: _114  and  _115
REMARK   51  A    between atoms: _117  and  _119
REMARK   52  A    between atoms: _119  and  _120
REMARK   53  A    between atoms: _119  and  _122
REMARK   54  A    between atoms: _125  and  _127
REMARK   55  A    between atoms: _127  and  _128
REMARK   56  A    between atoms: _127  and  _130
REMARK   57  A    between atoms: _130  and  _131
REMARK   58  A    between atoms: _131  and  _132
REMARK   59  A    between atoms: _132  and  _133
REMARK   60  A    between atoms: _142  and  _144
REMARK   61  A    between atoms: _144  and  _145
REMARK   62  A    between atoms: _144  and  _147
REMARK   63  A    between atoms: _147  and  _148
REMARK   64  A    between atoms: _151  and  _153
REMARK   65  A    between atoms: _153  and  _154
REMARK   66  A    between atoms: _153  and  _156
REMARK   67  A    between atoms: _156  and  _157
REMARK   68  A    between atoms: _157  and  _158
REMARK   69  A    between atoms: _161  and  _163
REMARK   70  A    between atoms: _163  and  _164
REMARK   71  A    between atoms: _163  and  _166
REMARK   72  A    between atoms: _166  and  _167
REMARK   73  A    between atoms: _170  and  _172
REMARK   74  A    between atoms: _172  and  _173
REMARK   75  A    between atoms: _172  and  _175
REMARK   76  A    between atoms: _178  and  _180
REMARK   77  A    between atoms: _180  and  _181
REMARK   78  A    between atoms: _180  and  _183
REMARK   79  A    between atoms: _186  and  _188
REMARK   80  A    between atoms: _188  and  _189
REMARK   81  A    between atoms: _188  and  _191
REMARK   82  A    between atoms: _191  and  _192
REMARK   83  A    between atoms: _195  and  _197
REMARK   84  A    between atoms: _197  and  _198
REMARK   85  A    between atoms: _197  and  _200
REMARK   86  A    between atoms: _200  and  _201
REMARK   87  A    between atoms: _203  and  _205
REMARK   88  A    between atoms: _205  and  _206
REMARK   89  A    between atoms: _208  and  _210
REMARK   90  A    between atoms: _210  and  _211
REMARK   91  A    between atoms: _210  and  _213
REMARK   92  A    between atoms: _213  and  _214
REMARK   93  A    between atoms: _217  and  _219
REMARK   94  A    between atoms: _219  and  _220
REMARK   95  A    between atoms: _219  and  _222
REMARK   96  A    between atoms: _222  and  _223
REMARK   97  A    between atoms: _226  and  _228
REMARK   98  A    between atoms: _228  and  _229
REMARK   99  A    between atoms: _228  and  _231
REMARK  100  A    between atoms: _231  and  _232
REMARK  101  A    between atoms: _235  and  _237
REMARK  102  A    between atoms: _237  and  _238
REMARK  103  A    between atoms: _237  and  _240
REMARK  104  A    between atoms: _240  and  _241
REMARK  105  A    between atoms: _243  and  _245
REMARK  106  A    between atoms: _245  and  _246
REMARK  107  A    between atoms: _245  and  _248
REMARK  108  A    between atoms: _248  and  _249
REMARK  109  A    between atoms: _259  and  _261
REMARK  110  A    between atoms: _261  and  _262
REMARK  111  A    between atoms: _261  and  _264
REMARK  112  A    between atoms: _264  and  _265
REMARK  113  A    between atoms: _268  and  _270
REMARK  114  A    between atoms: _270  and  _271
REMARK  115  A    between atoms: _270  and  _273
REMARK  116  A    between atoms: _273  and  _274
REMARK  117  A    between atoms: _277  and  _279
REMARK  118  A    between atoms: _279  and  _280
REMARK  119  A    between atoms: _279  and  _282
REMARK  120  A    between atoms: _282  and  _283
REMARK  121  A    between atoms: _283  and  _284
REMARK  122  A    between atoms: _284  and  _285
REMARK  123  A    between atoms: _285  and  _286
REMARK  124  A    between atoms: _290  and  _292
REMARK  125  A    between atoms: _292  and  _293
REMARK  126  A    between atoms: _292  and  _295
REMARK  127  A    between atoms: _295  and  _296
REMARK  128  A    between atoms: _299  and  _301
REMARK  129  A    between atoms: _301  and  _302
REMARK  130  A    between atoms: _305  and  _307
REMARK  131  A    between atoms: _307  and  _308
REMARK  132  A    between atoms: _311  and  _313
REMARK  133  A    between atoms: _313  and  _314
REMARK  134  A    between atoms: _313  and  _316
REMARK  135  A    between atoms: _316  and  _317
REMARK  136  A    between atoms: _321  and  _322
REMARK  137  A    between atoms: _327  and  _329
REMARK  138  A    between atoms: _329  and  _330
REMARK  139  A    between atoms: _329  and  _332
REMARK  140  A    between atoms: _332  and  _333
REMARK  141  A    between atoms: _338  and  _340
REMARK  142  A    between atoms: _340  and  _341
REMARK  143  A    between atoms: _340  and  _343
REMARK  144  A    between atoms: _343  and  _344
REMARK  145  A    between atoms: _347  and  _349
REMARK  146  A    between atoms: _349  and  _350
REMARK  147  A    between atoms: _349  and  _352
REMARK  148  A    between atoms: _352  and  _353
REMARK  149  A    between atoms: _359  and  _361
REMARK  150  A    between atoms: _361  and  _362
REMARK  151  A    between atoms: _361  and  _364
REMARK  152  A    between atoms: _367  and  _369
REMARK  153  A    between atoms: _369  and  _370
REMARK  154  A    between atoms: _369  and  _372
REMARK  155  A    between atoms: _375  and  _377
REMARK  156  A    between atoms: _377  and  _378
REMARK  157  A    between atoms: _380  and  _382
REMARK  158  A    between atoms: _382  and  _383
REMARK  159  A    between atoms: _385  and  _387
REMARK  160  A    between atoms: _387  and  _388
REMARK  161  A    between atoms: _387  and  _390
REMARK  162  A    between atoms: _390  and  _391
REMARK  163  A    between atoms: _394  and  _396
REMARK  164  A    between atoms: _396  and  _397
REMARK  165  A    between atoms: _396  and  _399
REMARK  166  A    between atoms: _399  and  _400
REMARK  167  A    between atoms: _400  and  _402
REMARK  168  A    between atoms: _402  and  MG_565
REMARK  169  A    between atoms: _403  and  _405
REMARK  170  A    between atoms: _405  and  _406
REMARK  171  A    between atoms: _405  and  _408
REMARK  172  A    between atoms: _408  and  _409
REMARK  173  A    between atoms: _414  and  _415
REMARK  174  A    between atoms: _417  and  _419
REMARK  175  A    between atoms: _419  and  _420
REMARK  176  A    between atoms: _419  and  _422
REMARK  177  A    between atoms: _422  and  _423
REMARK  178  A    between atoms: _426  and  _428
REMARK  179  A    between atoms: _428  and  _429
REMARK  180  A    between atoms: _428  and  _431
REMARK  181  A    between atoms: _431  and  _432
REMARK  182  A    between atoms: _432  and  _433
REMARK  183  A    between atoms: _436  and  _438
REMARK  184  A    between atoms: _438  and  _439
REMARK  185  A    between atoms: _438  and  _441
REMARK  186  A    between atoms: _441  and  _442
REMARK  187  A    between atoms: _442  and  _443
REMARK  188  A    between atoms: _443  and  _444
REMARK  189  A    between atoms: _453  and  _455
REMARK  190  A    between atoms: _455  and  _456
REMARK  191  A    between atoms: _455  and  _458
REMARK  192  A    between atoms: _458  and  _459
REMARK  193  A    between atoms: _464  and  _465
REMARK  194  A    between atoms: _467  and  _469
REMARK  195  A    between atoms: _469  and  _470
REMARK  196  A    between atoms: _469  and  _472
REMARK  197  A    between atoms: _472  and  _473
REMARK  198  A    between atoms: _473  and  _474
REMARK  199  A    between atoms: _474  and  _475
REMARK  200  A    between atoms: _484  and  _486
REMARK  201  A    between atoms: _486  and  _487
REMARK  202  A    between atoms: _486  and  _489
REMARK  203  A    between atoms: _489  and  _490
REMARK  204  A    between atoms: _493  and  _495
REMARK  205  A    between atoms: _495  and  _496
REMARK  206  A    between atoms: _498  and  _500
REMARK  207  A    between atoms: _500  and  _501
REMARK  208  A    between atoms: _500  and  _503
REMARK  209  A    between atoms: _503  and  _504
REMARK  210  A    between atoms: _507  and  _509
REMARK  211  A    between atoms: _509  and  _510
REMARK  212  A    between atoms: _509  and  _512
REMARK  213  A    between atoms: _512  and  _513
REMARK  214  A    between atoms: _518  and  _519
REMARK  215  A    between atoms: _521  and  _523
REMARK  216  A    between atoms: _523  and  _524
REMARK  217  A    between atoms: _523  and  _526
REMARK  218  A    between atoms: _526  and  _527
REMARK  219  A    between atoms: _533  and  _535
REMARK  220  A    between atoms: _535  and  _536
REMARK  221  A    between atoms: _535  and  _538
REMARK  222  A    between atoms: _538  and  _539
REMARK  223  A    between atoms: _545  and  _547
REMARK  224  A    between atoms: _547  and  _548
REMARK  225  A    between atoms: _547  and  _550
REMARK  226  A    between atoms: _550  and  _551
REMARK  227  A    between atoms: _554  and  _556
REMARK  228  A    between atoms: _556  and  _557
REMARK  229  A    between atoms: _556  and  _559
REMARK  230  A    between atoms: _559  and  _560
REMARK                            x       y       z     vdW  Elec       q    Type
REMARK                         _______ _______ _______ _____ _____    ______ ____
ROOT
ATOM      1  C   GLY A   7      -7.643  19.746 117.893  0.00  0.00    +0.243 C 
ATOM      2  N   LEU A   8      -6.331  19.524 117.891  0.00  0.00    -0.297 N 
ATOM      3  H   LEU A   8      -5.803  19.591 118.784  0.00  0.00    +0.150 HD
ATOM      4  O   GLY A   7      -8.339  19.659 116.880  0.00  0.00    -0.273 OA
ENDROOT
BRANCH   1   5
ATOM      5  CA  GLY A   7      -8.267  20.119 119.224  0.00  0.00    +0.176 C 
BRANCH   5   7
ATOM      6  C   SER A   6      -6.689  21.430 120.526  0.00  0.00    +0.243 C 
ATOM      7  N   GLY A   7      -7.289  20.269 120.285  0.00  0.00    -0.295 N 
ATOM      8  H   GLY A   7      -7.051  19.445 120.873  0.00  0.00    +0.150 HD
ATOM      9  O   SER A   6      -6.912  22.448 119.872  0.00  0.00    -0.273 OA
BRANCH   6  10
ATOM     10  CA  SER A   6      -5.693  21.439 121.680  0.00  0.00    +0.178 C 
BRANCH  10  13
ATOM     11  C   ASP A   5      -7.083  20.630 123.497  0.00  0.00    +0.241 C 
ATOM     12  O   ASP A   5      -7.728  21.676 123.521  0.00  0.00    -0.273 OA
ATOM     13  N   SER A   6      -6.068  20.429 122.662  0.00  0.00    -0.295 N 
ATOM     14  H   SER A   6      -5.534  19.538 122.710  0.00  0.00    +0.150 HD
BRANCH  11  15
ATOM     15  CA  ASP A   5      -7.422  19.489 124.448  0.00  0.00    +0.160 C 
BRANCH  15  18
ATOM     16  C   VAL A   4      -9.511  18.267 124.221  0.00  0.00    +0.241 C 
ATOM     17  O   VAL A   4     -10.032  18.884 125.151  0.00  0.00    -0.273 OA
ATOM     18  N   ASP A   5      -8.275  18.505 123.795  0.00  0.00    -0.297 N 
ATOM     19  H   ASP A   5      -7.908  17.977 122.977  0.00  0.00    +0.150 HD
BRANCH  16  20
ATOM     20  CA  VAL A   4     -10.266  17.152 123.509  0.00  0.00    +0.149 C 
BRANCH  20  22
ATOM     21  C   VAL A   3     -10.080  14.938 124.508  0.00  0.00    +0.241 C 
ATOM     22  N   VAL A   4     -10.634  16.146 124.495  0.00  0.00    -0.297 N 
ATOM     23  H   VAL A   4     -11.352  16.380 125.210  0.00  0.00    +0.150 HD
ATOM     24  O   VAL A   3      -9.383  14.507 123.586  0.00  0.00    -0.273 OA
BRANCH  21  25
ATOM     25  CA  VAL A   3     -10.392  14.080 125.733  0.00  0.00    +0.149 C 
BRANCH  25  28
ATOM     26  C   ASP A   2     -11.445  11.928 126.104  0.00  0.00    +0.241 C 
ATOM     27  O   ASP A   2     -12.046  12.348 127.091  0.00  0.00    -0.273 OA
ATOM     28  N   VAL A   3     -10.635  12.690 125.377  0.00  0.00    -0.297 N 
ATOM     29  H   VAL A   3     -10.167  12.287 124.540  0.00  0.00    +0.150 HD
BRANCH  26  30
ATOM     30  CA  ASP A   2     -11.608  10.482 125.648  0.00  0.00    +0.160 C 
BRANCH  30  33
ATOM     31  C   GLU A   1     -12.992  10.605 123.645  0.00  0.00    +0.238 C 
ATOM     32  O   GLU A   1     -14.026  10.771 124.295  0.00  0.00    -0.274 OA
ATOM     33  N   ASP A   2     -11.800  10.416 124.205  0.00  0.00    -0.297 N 
ATOM     34  H   ASP A   2     -10.982  10.215 123.595  0.00  0.00    +0.150 HD
BRANCH  31  35
ATOM     35  CA  GLU A   1     -13.017  10.610 122.123  0.00  0.00    +0.145 C 
BRANCH  35  36
ATOM     36  N   GLU A   1     -14.351  10.339 121.598  0.00  0.00    -0.238 NA
ATOM     37  H   GLU A   1     -15.127  10.991 121.832  0.00  0.00    +0.142 HD
ENDBRANCH  35  36
BRANCH  35  38
ATOM     38  CB  GLU A   1     -12.498  11.956 121.609  0.00  0.00    +0.038 C 
BRANCH  38  39
ATOM     39  CG  GLU A   1     -11.654  11.877 120.343  0.00  0.00    +0.116 C 
BRANCH  39  40
ATOM     40  CD  GLU A   1     -10.202  11.520 120.623  0.00  0.00    +0.365 C 
ATOM     41  OE2 GLU A   1      -9.921  10.925 121.686  0.00  0.00    -0.246 OA
ATOM     42  OE1 GLU A   1      -9.339  11.841 119.780  0.00  0.00    -0.246 OA
ENDBRANCH  39  40
ENDBRANCH  38  39
ENDBRANCH  35  38
ENDBRANCH  31  35
ENDBRANCH  30  33
BRANCH  30  43
ATOM     43  CB  ASP A   2     -10.391   9.649 126.070  0.00  0.00    +0.143 C 
BRANCH  43  44
ATOM     44  CG  ASP A   2      -9.157   9.942 125.231  0.00  0.00    +0.367 C 
ATOM     45  OD2 ASP A   2      -8.042   9.597 125.673  0.00  0.00    -0.246 OA
ATOM     46  OD1 ASP A   2      -9.299  10.508 124.126  0.00  0.00    -0.246 OA
ENDBRANCH  43  44
ENDBRANCH  30  43
ENDBRANCH  26  30
ENDBRANCH  25  28
BRANCH  25  47
ATOM     47  CB  VAL A   3      -9.237  14.197 126.766  0.00  0.00    +0.027 C 
ATOM     48  CG2 VAL A   3      -9.057  15.639 127.229  0.00  0.00    +0.002 C 
ATOM     49  CG1 VAL A   3      -7.941  13.636 126.202  0.00  0.00    +0.002 C 
ENDBRANCH  25  47
ENDBRANCH  21  25
ENDBRANCH  20  22
BRANCH  20  50
ATOM     50  CB  VAL A   4     -11.494  17.727 122.780  0.00  0.00    +0.027 C 
ATOM     51  CG2 VAL A   4     -12.229  16.624 122.027  0.00  0.00    +0.002 C 
ATOM     52  CG1 VAL A   4     -11.076  18.843 121.832  0.00  0.00    +0.002 C 
ENDBRANCH  20  50
ENDBRANCH  16  20
ENDBRANCH  15  18
BRANCH  15  53
ATOM     53  CB  ASP A   5      -6.144  18.825 124.965  0.00  0.00    +0.143 C 
BRANCH  53  54
ATOM     54  CG  ASP A   5      -5.269  19.779 125.755  0.00  0.00    +0.367 C 
ATOM     55  OD2 ASP A   5      -5.770  20.843 126.176  0.00  0.00    -0.246 OA
ATOM     56  OD1 ASP A   5      -4.080  19.458 125.964  0.00  0.00    -0.246 OA
ENDBRANCH  53  54
ENDBRANCH  15  53
ENDBRANCH  11  15
ENDBRANCH  10  13
BRANCH  10  57
ATOM     57  CB  SER A   6      -4.271  21.200 121.164  0.00  0.00    +0.166 C 
BRANCH  57  58
ATOM     58  OG  SER A   6      -4.218  20.062 120.323  0.00  0.00    -0.380 OA
ATOM     59  H   SER A   6      -4.509  19.264 120.831  0.00  0.00    +0.211 HD
ENDBRANCH  57  58
ENDBRANCH  10  57
ENDBRANCH   6  10
ENDBRANCH   5   7
ENDBRANCH   1   5
BRANCH   2  60
ATOM     60  CA  LEU A   8      -5.615  19.188 116.662  0.00  0.00    +0.149 C 
BRANCH  60  61
ATOM     61  C   LEU A   8      -5.984  17.802 116.147  0.00  0.00    +0.241 C 
ATOM     62  N   THR A   9      -6.101  16.841 117.059  0.00  0.00    -0.295 N 
ATOM     63  H   THR A   9      -5.940  17.070 118.061  0.00  0.00    +0.150 HD
ATOM     64  O   LEU A   8      -6.151  17.610 114.941  0.00  0.00    -0.273 OA
BRANCH  62  65
ATOM     65  CA  THR A   9      -6.450  15.474 116.689  0.00  0.00    +0.176 C 
BRANCH  65  66
ATOM     66  C   THR A   9      -7.853  15.425 116.090  0.00  0.00    +0.243 C 
ATOM     67  N   LEU A  10      -8.789  16.117 116.733  0.00  0.00    -0.297 N 
ATOM     68  H   LEU A  10      -8.529  16.642 117.592  0.00  0.00    +0.150 HD
ATOM     69  O   THR A   9      -8.077  14.785 115.061  0.00  0.00    -0.273 OA
BRANCH  67  70
ATOM     70  CA  LEU A  10     -10.171  16.159 116.265  0.00  0.00    +0.149 C 
BRANCH  70  71
ATOM     71  C   LEU A  10     -10.292  16.857 114.912  0.00  0.00    +0.241 C 
ATOM     72  N   SER A  11      -9.497  17.904 114.704  0.00  0.00    -0.295 N 
ATOM     73  H   SER A  11      -8.855  18.214 115.461  0.00  0.00    +0.150 HD
ATOM     74  O   LEU A  10     -11.095  16.453 114.070  0.00  0.00    -0.273 OA
BRANCH  72  75
ATOM     75  CA  SER A  11      -9.509  18.625 113.435  0.00  0.00    +0.178 C 
BRANCH  75  76
ATOM     76  C   SER A  11      -9.060  17.720 112.295  0.00  0.00    +0.243 C 
ATOM     77  N   TRP A  12      -7.997  16.958 112.530  0.00  0.00    -0.297 N 
ATOM     78  H   TRP A  12      -7.517  17.021 113.450  0.00  0.00    +0.150 HD
ATOM     79  O   SER A  11      -9.668  17.710 111.226  0.00  0.00    -0.273 OA
BRANCH  77  80
ATOM     80  CA  TRP A  12      -7.492  16.035 111.521  0.00  0.00    +0.153 C 
BRANCH  80  81
ATOM     81  C   TRP A  12      -8.497  14.920 111.257  0.00  0.00    +0.241 C 
ATOM     82  N   LEU A  13      -9.037  14.352 112.333  0.00  0.00    -0.298 N 
ATOM     83  H   LEU A  13      -8.737  14.675 113.275  0.00  0.00    +0.150 HD
ATOM     84  O   TRP A  12      -8.772  14.583 110.105  0.00  0.00    -0.273 OA
BRANCH  82  85
ATOM     85  CA  LEU A  13     -10.035  13.292 112.238  0.00  0.00    +0.137 C 
BRANCH  85  86
ATOM     86  C   LEU A  13     -11.283  13.747 111.493  0.00  0.00    +0.227 C 
ATOM     87  O   LEU A  13     -11.796  13.033 110.633  0.00  0.00    -0.286 OA
ENDBRANCH  85  86
BRANCH  85  88
ATOM     88  CB  LEU A  13     -10.426  12.800 113.632  0.00  0.00    +0.028 C 
BRANCH  88  89
ATOM     89  CG  LEU A  13      -9.530  11.748 114.280  0.00  0.00    +0.002 C 
ATOM     90  CD2 LEU A  13      -9.852  11.624 115.761  0.00  0.00    +0.000 C 
ATOM     91  CD1 LEU A  13      -9.685  10.410 113.574  0.00  0.00    +0.000 C 
ENDBRANCH  88  89
ENDBRANCH  85  88
ENDBRANCH  82  85
ENDBRANCH  80  81
BRANCH  80  92
ATOM     92  CB  TRP A  12      -6.151  15.438 111.947  0.00  0.00    +0.057 C 
BRANCH  92  93
ATOM     93  CG  TRP A  12      -5.482  14.686 110.842  0.00  0.00    -0.002 A 
ATOM     94  CD2 TRP A  12      -5.695  13.314 110.484  0.00  0.00    +0.013 A 
ATOM     95  CE3 TRP A  12      -6.503  12.293 110.991  0.00  0.00    +0.001 A 
ATOM     96  CZ3 TRP A  12      -6.456  11.047 110.389  0.00  0.00    +0.000 A 
ATOM     97  CH2 TRP A  12      -5.618  10.805 109.293  0.00  0.00    +0.001 A 
ATOM     98  CZ2 TRP A  12      -4.816  11.785 108.775  0.00  0.00    +0.017 A 
ATOM     99  CE2 TRP A  12      -4.862  13.040 109.380  0.00  0.00    +0.056 A 
ATOM    100  NE1 TRP A  12      -4.182  14.190 109.081  0.00  0.00    -0.352 N 
ATOM    101  HE1 TRP A  12      -3.490  14.301 108.313  0.00  0.00    +0.166 HD
ATOM    102  CD1 TRP A  12      -4.563  15.174 109.961  0.00  0.00    +0.068 A 
ENDBRANCH  92  93
ENDBRANCH  80  92
ENDBRANCH  77  80
ENDBRANCH  75  76
BRANCH  75 103
ATOM    103  CB  SER A  11      -8.616  19.866 113.501  0.00  0.00    +0.166 C 
BRANCH 103 104
ATOM    104  OG  SER A  11      -9.268  20.932 114.170  0.00  0.00    -0.380 OA
ATOM    105  H   SER A  11      -9.491  20.653 115.093  0.00  0.00    +0.211 HD
ENDBRANCH 103 104
ENDBRANCH  75 103
ENDBRANCH  72  75
ENDBRANCH  70  71
BRANCH  70 106
ATOM    106  CB  LEU A  10     -11.062  16.856 117.297  0.00  0.00    +0.029 C 
BRANCH 106 107
ATOM    107  CG  LEU A  10     -12.555  16.922 116.972  0.00  0.00    +0.002 C 
ATOM    108  CD2 LEU A  10     -13.314  17.627 118.087  0.00  0.00    +0.000 C 
ATOM    109  CD1 LEU A  10     -13.115  15.526 116.735  0.00  0.00    +0.000 C 
ENDBRANCH 106 107
ENDBRANCH  70 106
ENDBRANCH  67  70
ENDBRANCH  65  66
BRANCH  65 110
ATOM    110  CB  THR A   9      -6.371  14.518 117.898  0.00  0.00    +0.137 C 
ATOM    111  CG2 THR A   9      -6.702  13.091 117.483  0.00  0.00    +0.034 C 
BRANCH 110 112
ATOM    112  OG1 THR A   9      -5.049  14.552 118.453  0.00  0.00    -0.382 OA
ATOM    113  HG1 THR A   9      -4.840  15.474 118.748  0.00  0.00    +0.210 HD
ENDBRANCH 110 112
ENDBRANCH  65 110
ENDBRANCH  62  65
ENDBRANCH  60  61
BRANCH  60 114
ATOM    114  CB  LEU A   8      -4.100  19.274 116.876  0.00  0.00    +0.029 C 
BRANCH 114 115
ATOM    115  CG  LEU A   8      -3.499  20.679 116.956  0.00  0.00    +0.002 C 
ATOM    116  CD2 LEU A   8      -1.993  20.615 117.180  0.00  0.00    +0.000 C 
ATOM    117  CD1 LEU A   8      -3.824  21.466 115.698  0.00  0.00    +0.000 C 
ENDBRANCH 114 115
ENDBRANCH  60 114
ENDBRANCH   2  60
TORSDOF 49
REMARK  Name = ../refined-set-2016/4rhx/4rhx_pocket.pdb
REMARK  230 active torsions:
REMARK  status: ('A' for Active; 'I' for Inactive)
REMARK    1  A    between atoms: _1  and  _3
REMARK    2  A    between atoms: _3  and  _4
REMARK    3  A    between atoms: _3  and  _6
REMARK    4  A    between atoms: _6  and  _7
REMARK    5  A    between atoms: _10  and  _12
REMARK    6  A    between atoms: _12  and  _13
REMARK    7  A    between atoms: _12  and  _15
REMARK    8  A    between atoms: _18  and  _20
REMARK    9  A    between atoms: _20  and  _21
REMARK   10  A    between atoms: _20  and  _23
REMARK   11  A    between atoms: _23  and  _24
REMARK   12  A    between atoms: _27  and  _29
REMARK   13  A    between atoms: _29  and  _30
REMARK   14  A    between atoms: _29  and  _32
REMARK   15  A    between atoms: _32  and  _33
REMARK   16  A    between atoms: _33  and  _34
REMARK   17  A    between atoms: _34  and  _35
REMARK   18  A    between atoms: _35  and  _36
REMARK   19  A    between atoms: _40  and  _42
REMARK   20  A    between atoms: _42  and  _43
REMARK   21  A    between atoms: _45  and  _47
REMARK   22  A    between atoms: _47  and  _48
REMARK   23  A    between atoms: _51  and  _53
REMARK   24  A    between atoms: _53  and  _54
REMARK   25  A    between atoms: _53  and  _56
REMARK   26  A    between atoms: _59  and  _61
REMARK   27  A    between atoms: _61  and  _62
REMARK   28  A    between atoms: _61  and  _64
REMARK   29  A    between atoms: _64  and  _65
REMARK   30  A    between atoms: _65  and  _66
REMARK   31  A    between atoms: _68  and  _70
REMARK   32  A    between atoms: _70  and  _71
REMARK   33  A    between atoms: _74  and  _76
REMARK   34  A    between atoms: _76  and  _77
REMARK   35  A    between atoms: _76  and  _79
REMARK   36  A    between atoms: _82  and  _84
REMARK   37  A    between atoms: _84  and  _85
REMARK   38  A    between atoms: _84  and  _87
REMARK   39  A    between atoms: _87  and  _88
REMARK   40  A    between atoms: _90  and  _92
REMARK   41  A    between atoms: _92  and  _93
REMARK   42  A    between atoms: _92  and  _95
REMARK   43  A    between atoms: _95  and  _96
REMARK   44  A    between atoms: _98  and  _100
REMARK   45  A    between atoms: _100  and  _101
REMARK   46  A    between atoms: _100  and  _103
REMARK   47  A    between atoms: _103  and  _104
REMARK   48  A    between atoms: _109  and  _110
REMARK   49  A    between atoms: _112  and  _114
REMARK   50  A    between atoms: _114  and  _115
REMARK   51  A    between atoms: _117  and  _119
REMARK   52  A    between atoms: _119  and  _120
REMARK   53  A    between atoms: _119  and  _122
REMARK   54  A    between atoms: _125  and  _127
REMARK   55  A    between atoms: _127  and  _128
REMARK   56  A    between atoms: _127  and  _130
REMARK   57  A    between atoms: _130  and  _131
REMARK   58  A    between atoms: _131  and  _132
REMARK   59  A    between atoms: _132  and  _133
REMARK   60  A    between atoms: _142  and  _144
REMARK   61  A    between atoms: _144  and  _145
REMARK   62  A    between atoms: _144  and  _147
REMARK   63  A    between atoms: _147  and  _148
REMARK   64  A    between atoms: _151  and  _153
REMARK   65  A    between atoms: _153  and  _154
REMARK   66  A    between atoms: _153  and  _156
REMARK   67  A    between atoms: _156  and  _157
REMARK   68  A    between atoms: _157  and  _158
REMARK   69  A    between atoms: _161  and  _163
REMARK   70  A    between atoms: _163  and  _164
REMARK   71  A    between atoms: _163  and  _166
REMARK   72  A    between atoms: _166  and  _167
REMARK   73  A    between atoms: _170  and  _172
REMARK   74  A    between atoms: _172  and  _173
REMARK   75  A    between atoms: _172  and  _175
REMARK   76  A    between atoms: _178  and  _180
REMARK   77  A    between atoms: _180  and  _181
REMARK   78  A    between atoms: _180  and  _183
REMARK   79  A    between atoms: _186  and  _188
REMARK   80  A    between atoms: _188  and  _189
REMARK   81  A    between atoms: _188  and  _191
REMARK   82  A    between atoms: _191  and  _192
REMARK   83  A    between atoms: _195  and  _197
REMARK   84  A    between atoms: _197  and  _198
REMARK   85  A    between atoms: _197  and  _200
REMARK   86  A    between atoms: _200  and  _201
REMARK   87  A    between atoms: _203  and  _205
REMARK   88  A    between atoms: _205  and  _206
REMARK   89  A    between atoms: _208  and  _210
REMARK   90  A    between atoms: _210  and  _211
REMARK   91  A    between atoms: _210  and  _213
REMARK   92  A    between atoms: _213  and  _214
REMARK   93  A    between atoms: _217  and  _219
REMARK   94  A    between atoms: _219  and  _220
REMARK   95  A    between atoms: _219  and  _222
REMARK   96  A    between atoms: _222  and  _223
REMARK   97  A    between atoms: _226  and  _228
REMARK   98  A    between atoms: _228  and  _229
REMARK   99  A    between atoms: _228  and  _231
REMARK  100  A    between atoms: _231  and  _232
REMARK  101  A    between atoms: _235  and  _237
REMARK  102  A    between atoms: _237  and  _238
REMARK  103  A    between atoms: _237  and  _240
REMARK  104  A    between atoms: _240  and  _241
REMARK  105  A    between atoms: _243  and  _245
REMARK  106  A    between atoms: _245  and  _246
REMARK  107  A    between atoms: _245  and  _248
REMARK  108  A    between atoms: _248  and  _249
REMARK  109  A    between atoms: _259  and  _261
REMARK  110  A    between atoms: _261  and  _262
REMARK  111  A    between atoms: _261  and  _264
REMARK  112  A    between atoms: _264  and  _265
REMARK  113  A    between atoms: _268  and  _270
REMARK  114  A    between atoms: _270  and  _271
REMARK  115  A    between atoms: _270  and  _273
REMARK  116  A    between atoms: _273  and  _274
REMARK  117  A    between atoms: _277  and  _279
REMARK  118  A    between atoms: _279  and  _280
REMARK  119  A    between atoms: _279  and  _282
REMARK  120  A    between atoms: _282  and  _283
REMARK  121  A    between atoms: _283  and  _284
REMARK  122  A    between atoms: _284  and  _285
REMARK  123  A    between atoms: _285  and  _286
REMARK  124  A    between atoms: _290  and  _292
REMARK  125  A    between atoms: _292  and  _293
REMARK  126  A    between atoms: _292  and  _295
REMARK  127  A    between atoms: _295  and  _296
REMARK  128  A    between atoms: _299  and  _301
REMARK  129  A    between atoms: _301  and  _302
REMARK  130  A    between atoms: _305  and  _307
REMARK  131  A    between atoms: _307  and  _308
REMARK  132  A    between atoms: _311  and  _313
REMARK  133  A    between atoms: _313  and  _314
REMARK  134  A    between atoms: _313  and  _316
REMARK  135  A    between atoms: _316  and  _317
REMARK  136  A    between atoms: _321  and  _322
REMARK  137  A    between atoms: _327  and  _329
REMARK  138  A    between atoms: _329  and  _330
REMARK  139  A    between atoms: _329  and  _332
REMARK  140  A    between atoms: _332  and  _333
REMARK  141  A    between atoms: _338  and  _340
REMARK  142  A    between atoms: _340  and  _341
REMARK  143  A    between atoms: _340  and  _343
REMARK  144  A    between atoms: _343  and  _344
REMARK  145  A    between atoms: _347  and  _349
REMARK  146  A    between atoms: _349  and  _350
REMARK  147  A    between atoms: _349  and  _352
REMARK  148  A    between atoms: _352  and  _353
REMARK  149  A    between atoms: _359  and  _361
REMARK  150  A    between atoms: _361  and  _362
REMARK  151  A    between atoms: _361  and  _364
REMARK  152  A    between atoms: _367  and  _369
REMARK  153  A    between atoms: _369  and  _370
REMARK  154  A    between atoms: _369  and  _372
REMARK  155  A    between atoms: _375  and  _377
REMARK  156  A    between atoms: _377  and  _378
REMARK  157  A    between atoms: _380  and  _382
REMARK  158  A    between atoms: _382  and  _383
REMARK  159  A    between atoms: _385  and  _387
REMARK  160  A    between atoms: _387  and  _388
REMARK  161  A    between atoms: _387  and  _390
REMARK  162  A    between atoms: _390  and  _391
REMARK  163  A    between atoms: _394  and  _396
REMARK  164  A    between atoms: _396  and  _397
REMARK  165  A    between atoms: _396  and  _399
REMARK  166  A    between atoms: _399  and  _400
REMARK  167  A    between atoms: _400  and  _402
REMARK  168  A    between atoms: _402  and  MG_565
REMARK  169  A    between atoms: _403  and  _405
REMARK  170  A    between atoms: _405  and  _406
REMARK  171  A    between atoms: _405  and  _408
REMARK  172  A    between atoms: _408  and  _409
REMARK  173  A    between atoms: _414  and  _415
REMARK  174  A    between atoms: _417  and  _419
REMARK  175  A    between atoms: _419  and  _420
REMARK  176  A    between atoms: _419  and  _422
REMARK  177  A    between atoms: _422  and  _423
REMARK  178  A    between atoms: _426  and  _428
REMARK  179  A    between atoms: _428  and  _429
REMARK  180  A    between atoms: _428  and  _431
REMARK  181  A    between atoms: _431  and  _432
REMARK  182  A    between atoms: _432  and  _433
REMARK  183  A    between atoms: _436  and  _438
REMARK  184  A    between atoms: _438  and  _439
REMARK  185  A    between atoms: _438  and  _441
REMARK  186  A    between atoms: _441  and  _442
REMARK  187  A    between atoms: _442  and  _443
REMARK  188  A    between atoms: _443  and  _444
REMARK  189  A    between atoms: _453  and  _455
REMARK  190  A    between atoms: _455  and  _456
REMARK  191  A    between atoms: _455  and  _458
REMARK  192  A    between atoms: _458  and  _459
REMARK  193  A    between atoms: _464  and  _465
REMARK  194  A    between atoms: _467  and  _469
REMARK  195  A    between atoms: _469  and  _470
REMARK  196  A    between atoms: _469  and  _472
REMARK  197  A    between atoms: _472  and  _473
REMARK  198  A    between atoms: _473  and  _474
REMARK  199  A    between atoms: _474  and  _475
REMARK  200  A    between atoms: _484  and  _486
REMARK  201  A    between atoms: _486  and  _487
REMARK  202  A    between atoms: _486  and  _489
REMARK  203  A    between atoms: _489  and  _490
REMARK  204  A    between atoms: _493  and  _495
REMARK  205  A    between atoms: _495  and  _496
REMARK  206  A    between atoms: _498  and  _500
REMARK  207  A    between atoms: _500  and  _501
REMARK  208  A    between atoms: _500  and  _503
REMARK  209  A    between atoms: _503  and  _504
REMARK  210  A    between atoms: _507  and  _509
REMARK  211  A    between atoms: _509  and  _510
REMARK  212  A    between atoms: _509  and  _512
REMARK  213  A    between atoms: _512  and  _513
REMARK  214  A    between atoms: _518  and  _519
REMARK  215  A    between atoms: _521  and  _523
REMARK  216  A    between atoms: _523  and  _524
REMARK  217  A    between atoms: _523  and  _526
REMARK  218  A    between atoms: _526  and  _527
REMARK  219  A    between atoms: _533  and  _535
REMARK  220  A    between atoms: _535  and  _536
REMARK  221  A    between atoms: _535  and  _538
REMARK  222  A    between atoms: _538  and  _539
REMARK  223  A    between atoms: _545  and  _547
REMARK  224  A    between atoms: _547  and  _548
REMARK  225  A    between atoms: _547  and  _550
REMARK  226  A    between atoms: _550  and  _551
REMARK  227  A    between atoms: _554  and  _556
REMARK  228  A    between atoms: _556  and  _557
REMARK  229  A    between atoms: _556  and  _559
REMARK  230  A    between atoms: _559  and  _560
REMARK                            x       y       z     vdW  Elec       q    Type
REMARK                         _______ _______ _______ _____ _____    ______ ____
ROOT
ATOM      1  CA  LEU A   1     -13.474  15.222 128.775  0.00  0.00    +0.133 C 
ENDROOT
BRANCH   1   2
ATOM      2  N   LEU A   1     -14.116  14.096 128.111  0.00  0.00    -0.239 NA
ATOM      3  H   LEU A   1     -13.622  13.624 127.327  0.00  0.00    +0.142 HD
ENDBRANCH   1   2
BRANCH   1   4
ATOM      4  C   LEU A   1     -13.136  16.337 127.794  0.00  0.00    +0.224 C 
ATOM      5  O   LEU A   1     -12.853  16.082 126.623  0.00  0.00    -0.287 OA
ENDBRANCH   1   4
BRANCH   1   6
ATOM      6  CB  LEU A   1     -12.202  14.758 129.487  0.00  0.00    +0.025 C 
BRANCH   6   7
ATOM      7  CG  LEU A   1     -12.350  13.557 130.421  0.00  0.00    +0.002 C 
ATOM      8  CD2 LEU A   1     -13.253  13.908 131.596  0.00  0.00    +0.000 C 
ATOM      9  CD1 LEU A   1     -10.987  13.086 130.902  0.00  0.00    +0.000 C 
ENDBRANCH   6   7
ENDBRANCH   1   6
TORSDOF 4
REMARK  Name = ../refined-set-2016/4rhx/4rhx_pocket.pdb
REMARK  230 active torsions:
REMARK  status: ('A' for Active; 'I' for Inactive)
REMARK    1  A    between atoms: _1  and  _3
REMARK    2  A    between atoms: _3  and  _4
REMARK    3  A    between atoms: _3  and  _6
REMARK    4  A    between atoms: _6  and  _7
REMARK    5  A    between atoms: _10  and  _12
REMARK    6  A    between atoms: _12  and  _13
REMARK    7  A    between atoms: _12  and  _15
REMARK    8  A    between atoms: _18  and  _20
REMARK    9  A    between atoms: _20  and  _21
REMARK   10  A    between atoms: _20  and  _23
REMARK   11  A    between atoms: _23  and  _24
REMARK   12  A    between atoms: _27  and  _29
REMARK   13  A    between atoms: _29  and  _30
REMARK   14  A    between atoms: _29  and  _32
REMARK   15  A    between atoms: _32  and  _33
REMARK   16  A    between atoms: _33  and  _34
REMARK   17  A    between atoms: _34  and  _35
REMARK   18  A    between atoms: _35  and  _36
REMARK   19  A    between atoms: _40  and  _42
REMARK   20  A    between atoms: _42  and  _43
REMARK   21  A    between atoms: _45  and  _47
REMARK   22  A    between atoms: _47  and  _48
REMARK   23  A    between atoms: _51  and  _53
REMARK   24  A    between atoms: _53  and  _54
REMARK   25  A    between atoms: _53  and  _56
REMARK   26  A    between atoms: _59  and  _61
REMARK   27  A    between atoms: _61  and  _62
REMARK   28  A    between atoms: _61  and  _64
REMARK   29  A    between atoms: _64  and  _65
REMARK   30  A    between atoms: _65  and  _66
REMARK   31  A    between atoms: _68  and  _70
REMARK   32  A    between atoms: _70  and  _71
REMARK   33  A    between atoms: _74  and  _76
REMARK   34  A    between atoms: _76  and  _77
REMARK   35  A    between atoms: _76  and  _79
REMARK   36  A    between atoms: _82  and  _84
REMARK   37  A    between atoms: _84  and  _85
REMARK   38  A    between atoms: _84  and  _87
REMARK   39  A    between atoms: _87  and  _88
REMARK   40  A    between atoms: _90  and  _92
REMARK   41  A    between atoms: _92  and  _93
REMARK   42  A    between atoms: _92  and  _95
REMARK   43  A    between atoms: _95  and  _96
REMARK   44  A    between atoms: _98  and  _100
REMARK   45  A    between atoms: _100  and  _101
REMARK   46  A    between atoms: _100  and  _103
REMARK   47  A    between atoms: _103  and  _104
REMARK   48  A    between atoms: _109  and  _110
REMARK   49  A    between atoms: _112  and  _114
REMARK   50  A    between atoms: _114  and  _115
REMARK   51  A    between atoms: _117  and  _119
REMARK   52  A    between atoms: _119  and  _120
REMARK   53  A    between atoms: _119  and  _122
REMARK   54  A    between atoms: _125  and  _127
REMARK   55  A    between atoms: _127  and  _128
REMARK   56  A    between atoms: _127  and  _130
REMARK   57  A    between atoms: _130  and  _131
REMARK   58  A    between atoms: _131  and  _132
REMARK   59  A    between atoms: _132  and  _133
REMARK   60  A    between atoms: _142  and  _144
REMARK   61  A    between atoms: _144  and  _145
REMARK   62  A    between atoms: _144  and  _147
REMARK   63  A    between atoms: _147  and  _148
REMARK   64  A    between atoms: _151  and  _153
REMARK   65  A    between atoms: _153  and  _154
REMARK   66  A    between atoms: _153  and  _156
REMARK   67  A    between atoms: _156  and  _157
REMARK   68  A    between atoms: _157  and  _158
REMARK   69  A    between atoms: _161  and  _163
REMARK   70  A    between atoms: _163  and  _164
REMARK   71  A    between atoms: _163  and  _166
REMARK   72  A    between atoms: _166  and  _167
REMARK   73  A    between atoms: _170  and  _172
REMARK   74  A    between atoms: _172  and  _173
REMARK   75  A    between atoms: _172  and  _175
REMARK   76  A    between atoms: _178  and  _180
REMARK   77  A    between atoms: _180  and  _181
REMARK   78  A    between atoms: _180  and  _183
REMARK   79  A    between atoms: _186  and  _188
REMARK   80  A    between atoms: _188  and  _189
REMARK   81  A    between atoms: _188  and  _191
REMARK   82  A    between atoms: _191  and  _192
REMARK   83  A    between atoms: _195  and  _197
REMARK   84  A    between atoms: _197  and  _198
REMARK   85  A    between atoms: _197  and  _200
REMARK   86  A    between atoms: _200  and  _201
REMARK   87  A    between atoms: _203  and  _205
REMARK   88  A    between atoms: _205  and  _206
REMARK   89  A    between atoms: _208  and  _210
REMARK   90  A    between atoms: _210  and  _211
REMARK   91  A    between atoms: _210  and  _213
REMARK   92  A    between atoms: _213  and  _214
REMARK   93  A    between atoms: _217  and  _219
REMARK   94  A    between atoms: _219  and  _220
REMARK   95  A    between atoms: _219  and  _222
REMARK   96  A    between atoms: _222  and  _223
REMARK   97  A    between atoms: _226  and  _228
REMARK   98  A    between atoms: _228  and  _229
REMARK   99  A    between atoms: _228  and  _231
REMARK  100  A    between atoms: _231  and  _232
REMARK  101  A    between atoms: _235  and  _237
REMARK  102  A    between atoms: _237  and  _238
REMARK  103  A    between atoms: _237  and  _240
REMARK  104  A    between atoms: _240  and  _241
REMARK  105  A    between atoms: _243  and  _245
REMARK  106  A    between atoms: _245  and  _246
REMARK  107  A    between atoms: _245  and  _248
REMARK  108  A    between atoms: _248  and  _249
REMARK  109  A    between atoms: _259  and  _261
REMARK  110  A    between atoms: _261  and  _262
REMARK  111  A    between atoms: _261  and  _264
REMARK  112  A    between atoms: _264  and  _265
REMARK  113  A    between atoms: _268  and  _270
REMARK  114  A    between atoms: _270  and  _271
REMARK  115  A    between atoms: _270  and  _273
REMARK  116  A    between atoms: _273  and  _274
REMARK  117  A    between atoms: _277  and  _279
REMARK  118  A    between atoms: _279  and  _280
REMARK  119  A    between atoms: _279  and  _282
REMARK  120  A    between atoms: _282  and  _283
REMARK  121  A    between atoms: _283  and  _284
REMARK  122  A    between atoms: _284  and  _285
REMARK  123  A    between atoms: _285  and  _286
REMARK  124  A    between atoms: _290  and  _292
REMARK  125  A    between atoms: _292  and  _293
REMARK  126  A    between atoms: _292  and  _295
REMARK  127  A    between atoms: _295  and  _296
REMARK  128  A    between atoms: _299  and  _301
REMARK  129  A    between atoms: _301  and  _302
REMARK  130  A    between atoms: _305  and  _307
REMARK  131  A    between atoms: _307  and  _308
REMARK  132  A    between atoms: _311  and  _313
REMARK  133  A    between atoms: _313  and  _314
REMARK  134  A    between atoms: _313  and  _316
REMARK  135  A    between atoms: _316  and  _317
REMARK  136  A    between atoms: _321  and  _322
REMARK  137  A    between atoms: _327  and  _329
REMARK  138  A    between atoms: _329  and  _330
REMARK  139  A    between atoms: _329  and  _332
REMARK  140  A    between atoms: _332  and  _333
REMARK  141  A    between atoms: _338  and  _340
REMARK  142  A    between atoms: _340  and  _341
REMARK  143  A    between atoms: _340  and  _343
REMARK  144  A    between atoms: _343  and  _344
REMARK  145  A    between atoms: _347  and  _349
REMARK  146  A    between atoms: _349  and  _350
REMARK  147  A    between atoms: _349  and  _352
REMARK  148  A    between atoms: _352  and  _353
REMARK  149  A    between atoms: _359  and  _361
REMARK  150  A    between atoms: _361  and  _362
REMARK  151  A    between atoms: _361  and  _364
REMARK  152  A    between atoms: _367  and  _369
REMARK  153  A    between atoms: _369  and  _370
REMARK  154  A    between atoms: _369  and  _372
REMARK  155  A    between atoms: _375  and  _377
REMARK  156  A    between atoms: _377  and  _378
REMARK  157  A    between atoms: _380  and  _382
REMARK  158  A    between atoms: _382  and  _383
REMARK  159  A    between atoms: _385  and  _387
REMARK  160  A    between atoms: _387  and  _388
REMARK  161  A    between atoms: _387  and  _390
REMARK  162  A    between atoms: _390  and  _391
REMARK  163  A    between atoms: _394  and  _396
REMARK  164  A    between atoms: _396  and  _397
REMARK  165  A    between atoms: _396  and  _399
REMARK  166  A    between atoms: _399  and  _400
REMARK  167  A    between atoms: _400  and  _402
REMARK  168  A    between atoms: _402  and  MG_565
REMARK  169  A    between atoms: _403  and  _405
REMARK  170  A    between atoms: _405  and  _406
REMARK  171  A    between atoms: _405  and  _408
REMARK  172  A    between atoms: _408  and  _409
REMARK  173  A    between atoms: _414  and  _415
REMARK  174  A    between atoms: _417  and  _419
REMARK  175  A    between atoms: _419  and  _420
REMARK  176  A    between atoms: _419  and  _422
REMARK  177  A    between atoms: _422  and  _423
REMARK  178  A    between atoms: _426  and  _428
REMARK  179  A    between atoms: _428  and  _429
REMARK  180  A    between atoms: _428  and  _431
REMARK  181  A    between atoms: _431  and  _432
REMARK  182  A    between atoms: _432  and  _433
REMARK  183  A    between atoms: _436  and  _438
REMARK  184  A    between atoms: _438  and  _439
REMARK  185  A    between atoms: _438  and  _441
REMARK  186  A    between atoms: _441  and  _442
REMARK  187  A    between atoms: _442  and  _443
REMARK  188  A    between atoms: _443  and  _444
REMARK  189  A    between atoms: _453  and  _455
REMARK  190  A    between atoms: _455  and  _456
REMARK  191  A    between atoms: _455  and  _458
REMARK  192  A    between atoms: _458  and  _459
REMARK  193  A    between atoms: _464  and  _465
REMARK  194  A    between atoms: _467  and  _469
REMARK  195  A    between atoms: _469  and  _470
REMARK  196  A    between atoms: _469  and  _472
REMARK  197  A    between atoms: _472  and  _473
REMARK  198  A    between atoms: _473  and  _474
REMARK  199  A    between atoms: _474  and  _475
REMARK  200  A    between atoms: _484  and  _486
REMARK  201  A    between atoms: _486  and  _487
REMARK  202  A    between atoms: _486  and  _489
REMARK  203  A    between atoms: _489  and  _490
REMARK  204  A    between atoms: _493  and  _495
REMARK  205  A    between atoms: _495  and  _496
REMARK  206  A    between atoms: _498  and  _500
REMARK  207  A    between atoms: _500  and  _501
REMARK  208  A    between atoms: _500  and  _503
REMARK  209  A    between atoms: _503  and  _504
REMARK  210  A    between atoms: _507  and  _509
REMARK  211  A    between atoms: _509  and  _510
REMARK  212  A    between atoms: _509  and  _512
REMARK  213  A    between atoms: _512  and  _513
REMARK  214  A    between atoms: _518  and  _519
REMARK  215  A    between atoms: _521  and  _523
REMARK  216  A    between atoms: _523  and  _524
REMARK  217  A    between atoms: _523  and  _526
REMARK  218  A    between atoms: _526  and  _527
REMARK  219  A    between atoms: _533  and  _535
REMARK  220  A    between atoms: _535  and  _536
REMARK  221  A    between atoms: _535  and  _538
REMARK  222  A    between atoms: _538  and  _539
REMARK  223  A    between atoms: _545  and  _547
REMARK  224  A    between atoms: _547  and  _548
REMARK  225  A    between atoms: _547  and  _550
REMARK  226  A    between atoms: _550  and  _551
REMARK  227  A    between atoms: _554  and  _556
REMARK  228  A    between atoms: _556  and  _557
REMARK  229  A    between atoms: _556  and  _559
REMARK  230  A    between atoms: _559  and  _560
REMARK                            x       y       z     vdW  Elec       q    Type
REMARK                         _______ _______ _______ _____ _____    ______ ____
ROOT
ATOM      1  CG  LYS A   1      -8.106  19.247 129.172  0.00  0.00    -0.000 C 
ENDROOT
BRANCH   1   2
ATOM      2  CB  LYS A   1      -8.412  20.479 128.339  0.00  0.00    +0.025 C 
BRANCH   2   3
ATOM      3  CA  LYS A   1      -9.853  20.972 128.507  0.00  0.00    +0.133 C 
BRANCH   3   4
ATOM      4  N   LYS A   1     -10.763  20.074 127.805  0.00  0.00    -0.239 NA
ATOM      5  H   LYS A   1     -10.495  19.725 126.863  0.00  0.00    +0.142 HD
ENDBRANCH   3   4
BRANCH   3   6
ATOM      6  C   LYS A   1     -10.010  22.415 128.014  0.00  0.00    +0.224 C 
ATOM      7  O   LYS A   1     -10.550  22.638 126.929  0.00  0.00    -0.287 OA
ENDBRANCH   3   6
ENDBRANCH   2   3
ENDBRANCH   1   2
BRANCH   1   8
ATOM      8  CD  LYS A   1      -6.614  19.002 129.287  0.00  0.00    -0.024 C 
BRANCH   8   9
ATOM      9  CE  LYS A   1      -6.323  17.876 130.264  0.00  0.00    -0.086 C 
BRANCH   9  10
ATOM     10  NZ  LYS A   1      -4.861  17.667 130.446  0.00  0.00    +0.380 N 
ATOM     11  HZ1 LYS A   1      -4.704  16.890 131.120  0.00  0.00    -0.089 HD
ATOM     12  HZ2 LYS A   1      -4.431  18.539 130.814  0.00  0.00    -0.089 HD
ATOM     13  HZ3 LYS A   1      -4.430  17.426 129.531  0.00  0.00    -0.089 HD
ENDBRANCH   9  10
ENDBRANCH   8   9
ENDBRANCH   1   8
TORSDOF 7
REMARK  Name = ../refined-set-2016/4rhx/4rhx_pocket.pdb
REMARK  230 active torsions:
REMARK  status: ('A' for Active; 'I' for Inactive)
REMARK    1  A    between atoms: _1  and  _3
REMARK    2  A    between atoms: _3  and  _4
REMARK    3  A    between atoms: _3  and  _6
REMARK    4  A    between atoms: _6  and  _7
REMARK    5  A    between atoms: _10  and  _12
REMARK    6  A    between atoms: _12  and  _13
REMARK    7  A    between atoms: _12  and  _15
REMARK    8  A    between atoms: _18  and  _20
REMARK    9  A    between atoms: _20  and  _21
REMARK   10  A    between atoms: _20  and  _23
REMARK   11  A    between atoms: _23  and  _24
REMARK   12  A    between atoms: _27  and  _29
REMARK   13  A    between atoms: _29  and  _30
REMARK   14  A    between atoms: _29  and  _32
REMARK   15  A    between atoms: _32  and  _33
REMARK   16  A    between atoms: _33  and  _34
REMARK   17  A    between atoms: _34  and  _35
REMARK   18  A    between atoms: _35  and  _36
REMARK   19  A    between atoms: _40  and  _42
REMARK   20  A    between atoms: _42  and  _43
REMARK   21  A    between atoms: _45  and  _47
REMARK   22  A    between atoms: _47  and  _48
REMARK   23  A    between atoms: _51  and  _53
REMARK   24  A    between atoms: _53  and  _54
REMARK   25  A    between atoms: _53  and  _56
REMARK   26  A    between atoms: _59  and  _61
REMARK   27  A    between atoms: _61  and  _62
REMARK   28  A    between atoms: _61  and  _64
REMARK   29  A    between atoms: _64  and  _65
REMARK   30  A    between atoms: _65  and  _66
REMARK   31  A    between atoms: _68  and  _70
REMARK   32  A    between atoms: _70  and  _71
REMARK   33  A    between atoms: _74  and  _76
REMARK   34  A    between atoms: _76  and  _77
REMARK   35  A    between atoms: _76  and  _79
REMARK   36  A    between atoms: _82  and  _84
REMARK   37  A    between atoms: _84  and  _85
REMARK   38  A    between atoms: _84  and  _87
REMARK   39  A    between atoms: _87  and  _88
REMARK   40  A    between atoms: _90  and  _92
REMARK   41  A    between atoms: _92  and  _93
REMARK   42  A    between atoms: _92  and  _95
REMARK   43  A    between atoms: _95  and  _96
REMARK   44  A    between atoms: _98  and  _100
REMARK   45  A    between atoms: _100  and  _101
REMARK   46  A    between atoms: _100  and  _103
REMARK   47  A    between atoms: _103  and  _104
REMARK   48  A    between atoms: _109  and  _110
REMARK   49  A    between atoms: _112  and  _114
REMARK   50  A    between atoms: _114  and  _115
REMARK   51  A    between atoms: _117  and  _119
REMARK   52  A    between atoms: _119  and  _120
REMARK   53  A    between atoms: _119  and  _122
REMARK   54  A    between atoms: _125  and  _127
REMARK   55  A    between atoms: _127  and  _128
REMARK   56  A    between atoms: _127  and  _130
REMARK   57  A    between atoms: _130  and  _131
REMARK   58  A    between atoms: _131  and  _132
REMARK   59  A    between atoms: _132  and  _133
REMARK   60  A    between atoms: _142  and  _144
REMARK   61  A    between atoms: _144  and  _145
REMARK   62  A    between atoms: _144  and  _147
REMARK   63  A    between atoms: _147  and  _148
REMARK   64  A    between atoms: _151  and  _153
REMARK   65  A    between atoms: _153  and  _154
REMARK   66  A    between atoms: _153  and  _156
REMARK   67  A    between atoms: _156  and  _157
REMARK   68  A    between atoms: _157  and  _158
REMARK   69  A    between atoms: _161  and  _163
REMARK   70  A    between atoms: _163  and  _164
REMARK   71  A    between atoms: _163  and  _166
REMARK   72  A    between atoms: _166  and  _167
REMARK   73  A    between atoms: _170  and  _172
REMARK   74  A    between atoms: _172  and  _173
REMARK   75  A    between atoms: _172  and  _175
REMARK   76  A    between atoms: _178  and  _180
REMARK   77  A    between atoms: _180  and  _181
REMARK   78  A    between atoms: _180  and  _183
REMARK   79  A    between atoms: _186  and  _188
REMARK   80  A    between atoms: _188  and  _189
REMARK   81  A    between atoms: _188  and  _191
REMARK   82  A    between atoms: _191  and  _192
REMARK   83  A    between atoms: _195  and  _197
REMARK   84  A    between atoms: _197  and  _198
REMARK   85  A    between atoms: _197  and  _200
REMARK   86  A    between atoms: _200  and  _201
REMARK   87  A    between atoms: _203  and  _205
REMARK   88  A    between atoms: _205  and  _206
REMARK   89  A    between atoms: _208  and  _210
REMARK   90  A    between atoms: _210  and  _211
REMARK   91  A    between atoms: _210  and  _213
REMARK   92  A    between atoms: _213  and  _214
REMARK   93  A    between atoms: _217  and  _219
REMARK   94  A    between atoms: _219  and  _220
REMARK   95  A    between atoms: _219  and  _222
REMARK   96  A    between atoms: _222  and  _223
REMARK   97  A    between atoms: _226  and  _228
REMARK   98  A    between atoms: _228  and  _229
REMARK   99  A    between atoms: _228  and  _231
REMARK  100  A    between atoms: _231  and  _232
REMARK  101  A    between atoms: _235  and  _237
REMARK  102  A    between atoms: _237  and  _238
REMARK  103  A    between atoms: _237  and  _240
REMARK  104  A    between atoms: _240  and  _241
REMARK  105  A    between atoms: _243  and  _245
REMARK  106  A    between atoms: _245  and  _246
REMARK  107  A    between atoms: _245  and  _248
REMARK  108  A    between atoms: _248  and  _249
REMARK  109  A    between atoms: _259  and  _261
REMARK  110  A    between atoms: _261  and  _262
REMARK  111  A    between atoms: _261  and  _264
REMARK  112  A    between atoms: _264  and  _265
REMARK  113  A    between atoms: _268  and  _270
REMARK  114  A    between atoms: _270  and  _271
REMARK  115  A    between atoms: _270  and  _273
REMARK  116  A    between atoms: _273  and  _274
REMARK  117  A    between atoms: _277  and  _279
REMARK  118  A    between atoms: _279  and  _280
REMARK  119  A    between atoms: _279  and  _282
REMARK  120  A    between atoms: _282  and  _283
REMARK  121  A    between atoms: _283  and  _284
REMARK  122  A    between atoms: _284  and  _285
REMARK  123  A    between atoms: _285  and  _286
REMARK  124  A    between atoms: _290  and  _292
REMARK  125  A    between atoms: _292  and  _293
REMARK  126  A    between atoms: _292  and  _295
REMARK  127  A    between atoms: _295  and  _296
REMARK  128  A    between atoms: _299  and  _301
REMARK  129  A    between atoms: _301  and  _302
REMARK  130  A    between atoms: _305  and  _307
REMARK  131  A    between atoms: _307  and  _308
REMARK  132  A    between atoms: _311  and  _313
REMARK  133  A    between atoms: _313  and  _314
REMARK  134  A    between atoms: _313  and  _316
REMARK  135  A    between atoms: _316  and  _317
REMARK  136  A    between atoms: _321  and  _322
REMARK  137  A    between atoms: _327  and  _329
REMARK  138  A    between atoms: _329  and  _330
REMARK  139  A    between atoms: _329  and  _332
REMARK  140  A    between atoms: _332  and  _333
REMARK  141  A    between atoms: _338  and  _340
REMARK  142  A    between atoms: _340  and  _341
REMARK  143  A    between atoms: _340  and  _343
REMARK  144  A    between atoms: _343  and  _344
REMARK  145  A    between atoms: _347  and  _349
REMARK  146  A    between atoms: _349  and  _350
REMARK  147  A    between atoms: _349  and  _352
REMARK  148  A    between atoms: _352  and  _353
REMARK  149  A    between atoms: _359  and  _361
REMARK  150  A    between atoms: _361  and  _362
REMARK  151  A    between atoms: _361  and  _364
REMARK  152  A    between atoms: _367  and  _369
REMARK  153  A    between atoms: _369  and  _370
REMARK  154  A    between atoms: _369  and  _372
REMARK  155  A    between atoms: _375  and  _377
REMARK  156  A    between atoms: _377  and  _378
REMARK  157  A    between atoms: _380  and  _382
REMARK  158  A    between atoms: _382  and  _383
REMARK  159  A    between atoms: _385  and  _387
REMARK  160  A    between atoms: _387  and  _388
REMARK  161  A    between atoms: _387  and  _390
REMARK  162  A    between atoms: _390  and  _391
REMARK  163  A    between atoms: _394  and  _396
REMARK  164  A    between atoms: _396  and  _397
REMARK  165  A    between atoms: _396  and  _399
REMARK  166  A    between atoms: _399  and  _400
REMARK  167  A    between atoms: _400  and  _402
REMARK  168  A    between atoms: _402  and  MG_565
REMARK  169  A    between atoms: _403  and  _405
REMARK  170  A    between atoms: _405  and  _406
REMARK  171  A    between atoms: _405  and  _408
REMARK  172  A    between atoms: _408  and  _409
REMARK  173  A    between atoms: _414  and  _415
REMARK  174  A    between atoms: _417  and  _419
REMARK  175  A    between atoms: _419  and  _420
REMARK  176  A    between atoms: _419  and  _422
REMARK  177  A    between atoms: _422  and  _423
REMARK  178  A    between atoms: _426  and  _428
REMARK  179  A    between atoms: _428  and  _429
REMARK  180  A    between atoms: _428  and  _431
REMARK  181  A    between atoms: _431  and  _432
REMARK  182  A    between atoms: _432  and  _433
REMARK  183  A    between atoms: _436  and  _438
REMARK  184  A    between atoms: _438  and  _439
REMARK  185  A    between atoms: _438  and  _441
REMARK  186  A    between atoms: _441  and  _442
REMARK  187  A    between atoms: _442  and  _443
REMARK  188  A    between atoms: _443  and  _444
REMARK  189  A    between atoms: _453  and  _455
REMARK  190  A    between atoms: _455  and  _456
REMARK  191  A    between atoms: _455  and  _458
REMARK  192  A    between atoms: _458  and  _459
REMARK  193  A    between atoms: _464  and  _465
REMARK  194  A    between atoms: _467  and  _469
REMARK  195  A    between atoms: _469  and  _470
REMARK  196  A    between atoms: _469  and  _472
REMARK  197  A    between atoms: _472  and  _473
REMARK  198  A    between atoms: _473  and  _474
REMARK  199  A    between atoms: _474  and  _475
REMARK  200  A    between atoms: _484  and  _486
REMARK  201  A    between atoms: _486  and  _487
REMARK  202  A    between atoms: _486  and  _489
REMARK  203  A    between atoms: _489  and  _490
REMARK  204  A    between atoms: _493  and  _495
REMARK  205  A    between atoms: _495  and  _496
REMARK  206  A    between atoms: _498  and  _500
REMARK  207  A    between atoms: _500  and  _501
REMARK  208  A    between atoms: _500  and  _503
REMARK  209  A    between atoms: _503  and  _504
REMARK  210  A    between atoms: _507  and  _509
REMARK  211  A    between atoms: _509  and  _510
REMARK  212  A    between atoms: _509  and  _512
REMARK  213  A    between atoms: _512  and  _513
REMARK  214  A    between atoms: _518  and  _519
REMARK  215  A    between atoms: _521  and  _523
REMARK  216  A    between atoms: _523  and  _524
REMARK  217  A    between atoms: _523  and  _526
REMARK  218  A    between atoms: _526  and  _527
REMARK  219  A    between atoms: _533  and  _535
REMARK  220  A    between atoms: _535  and  _536
REMARK  221  A    between atoms: _535  and  _538
REMARK  222  A    between atoms: _538  and  _539
REMARK  223  A    between atoms: _545  and  _547
REMARK  224  A    between atoms: _547  and  _548
REMARK  225  A    between atoms: _547  and  _550
REMARK  226  A    between atoms: _550  and  _551
REMARK  227  A    between atoms: _554  and  _556
REMARK  228  A    between atoms: _556  and  _557
REMARK  229  A    between atoms: _556  and  _559
REMARK  230  A    between atoms: _559  and  _560
REMARK                            x       y       z     vdW  Elec       q    Type
REMARK                         _______ _______ _______ _____ _____    ______ ____
ROOT
ATOM      1  C   ASP A   1      -8.428  24.735 124.149  0.00  0.00    +0.239 C 
ATOM      2  N   ALA A   2      -9.446  23.907 124.360  0.00  0.00    -0.298 N 
ATOM      3  H   ALA A   2      -9.625  23.559 125.323  0.00  0.00    +0.150 HD
ATOM      4  O   ASP A   1      -8.171  25.206 123.040  0.00  0.00    -0.274 OA
ENDROOT
BRANCH   2   5
ATOM      5  CA  ALA A   2     -10.320  23.474 123.273  0.00  0.00    +0.137 C 
ATOM      6  CB  ALA A   2     -11.199  22.322 123.732  0.00  0.00    +0.030 C 
BRANCH   5   7
ATOM      7  C   ALA A   2     -11.181  24.617 122.745  0.00  0.00    +0.227 C 
ATOM      8  O   ALA A   2     -11.793  24.502 121.683  0.00  0.00    -0.286 OA
ENDBRANCH   5   7
ENDBRANCH   2   5
BRANCH   1   9
ATOM      9  CA  ASP A   1      -7.569  25.097 125.362  0.00  0.00    +0.156 C 
BRANCH   9  10
ATOM     10  N   ASP A   1      -8.157  24.669 126.632  0.00  0.00    -0.238 NA
ATOM     11  H   ASP A   1      -7.725  23.882 127.157  0.00  0.00    +0.142 HD
ENDBRANCH   9  10
BRANCH   9  12
ATOM     12  CB  ASP A   1      -6.169  24.501 125.191  0.00  0.00    +0.140 C 
BRANCH  12  13
ATOM     13  CG  ASP A   1      -5.124  25.213 126.030  0.00  0.00    +0.367 C 
ATOM     14  OD2 ASP A   1      -5.338  26.397 126.370  0.00  0.00    -0.246 OA
ATOM     15  OD1 ASP A   1      -4.090  24.589 126.351  0.00  0.00    -0.246 OA
ENDBRANCH  12  13
ENDBRANCH   9  12
ENDBRANCH   1   9
TORSDOF 6
REMARK  Name = ../refined-set-2016/4rhx/4rhx_pocket.pdb
REMARK  230 active torsions:
REMARK  status: ('A' for Active; 'I' for Inactive)
REMARK    1  A    between atoms: _1  and  _3
REMARK    2  A    between atoms: _3  and  _4
REMARK    3  A    between atoms: _3  and  _6
REMARK    4  A    between atoms: _6  and  _7
REMARK    5  A    between atoms: _10  and  _12
REMARK    6  A    between atoms: _12  and  _13
REMARK    7  A    between atoms: _12  and  _15
REMARK    8  A    between atoms: _18  and  _20
REMARK    9  A    between atoms: _20  and  _21
REMARK   10  A    between atoms: _20  and  _23
REMARK   11  A    between atoms: _23  and  _24
REMARK   12  A    between atoms: _27  and  _29
REMARK   13  A    between atoms: _29  and  _30
REMARK   14  A    between atoms: _29  and  _32
REMARK   15  A    between atoms: _32  and  _33
REMARK   16  A    between atoms: _33  and  _34
REMARK   17  A    between atoms: _34  and  _35
REMARK   18  A    between atoms: _35  and  _36
REMARK   19  A    between atoms: _40  and  _42
REMARK   20  A    between atoms: _42  and  _43
REMARK   21  A    between atoms: _45  and  _47
REMARK   22  A    between atoms: _47  and  _48
REMARK   23  A    between atoms: _51  and  _53
REMARK   24  A    between atoms: _53  and  _54
REMARK   25  A    between atoms: _53  and  _56
REMARK   26  A    between atoms: _59  and  _61
REMARK   27  A    between atoms: _61  and  _62
REMARK   28  A    between atoms: _61  and  _64
REMARK   29  A    between atoms: _64  and  _65
REMARK   30  A    between atoms: _65  and  _66
REMARK   31  A    between atoms: _68  and  _70
REMARK   32  A    between atoms: _70  and  _71
REMARK   33  A    between atoms: _74  and  _76
REMARK   34  A    between atoms: _76  and  _77
REMARK   35  A    between atoms: _76  and  _79
REMARK   36  A    between atoms: _82  and  _84
REMARK   37  A    between atoms: _84  and  _85
REMARK   38  A    between atoms: _84  and  _87
REMARK   39  A    between atoms: _87  and  _88
REMARK   40  A    between atoms: _90  and  _92
REMARK   41  A    between atoms: _92  and  _93
REMARK   42  A    between atoms: _92  and  _95
REMARK   43  A    between atoms: _95  and  _96
REMARK   44  A    between atoms: _98  and  _100
REMARK   45  A    between atoms: _100  and  _101
REMARK   46  A    between atoms: _100  and  _103
REMARK   47  A    between atoms: _103  and  _104
REMARK   48  A    between atoms: _109  and  _110
REMARK   49  A    between atoms: _112  and  _114
REMARK   50  A    between atoms: _114  and  _115
REMARK   51  A    between atoms: _117  and  _119
REMARK   52  A    between atoms: _119  and  _120
REMARK   53  A    between atoms: _119  and  _122
REMARK   54  A    between atoms: _125  and  _127
REMARK   55  A    between atoms: _127  and  _128
REMARK   56  A    between atoms: _127  and  _130
REMARK   57  A    between atoms: _130  and  _131
REMARK   58  A    between atoms: _131  and  _132
REMARK   59  A    between atoms: _132  and  _133
REMARK   60  A    between atoms: _142  and  _144
REMARK   61  A    between atoms: _144  and  _145
REMARK   62  A    between atoms: _144  and  _147
REMARK   63  A    between atoms: _147  and  _148
REMARK   64  A    between atoms: _151  and  _153
REMARK   65  A    between atoms: _153  and  _154
REMARK   66  A    between atoms: _153  and  _156
REMARK   67  A    between atoms: _156  and  _157
REMARK   68  A    between atoms: _157  and  _158
REMARK   69  A    between atoms: _161  and  _163
REMARK   70  A    between atoms: _163  and  _164
REMARK   71  A    between atoms: _163  and  _166
REMARK   72  A    between atoms: _166  and  _167
REMARK   73  A    between atoms: _170  and  _172
REMARK   74  A    between atoms: _172  and  _173
REMARK   75  A    between atoms: _172  and  _175
REMARK   76  A    between atoms: _178  and  _180
REMARK   77  A    between atoms: _180  and  _181
REMARK   78  A    between atoms: _180  and  _183
REMARK   79  A    between atoms: _186  and  _188
REMARK   80  A    between atoms: _188  and  _189
REMARK   81  A    between atoms: _188  and  _191
REMARK   82  A    between atoms: _191  and  _192
REMARK   83  A    between atoms: _195  and  _197
REMARK   84  A    between atoms: _197  and  _198
REMARK   85  A    between atoms: _197  and  _200
REMARK   86  A    between atoms: _200  and  _201
REMARK   87  A    between atoms: _203  and  _205
REMARK   88  A    between atoms: _205  and  _206
REMARK   89  A    between atoms: _208  and  _210
REMARK   90  A    between atoms: _210  and  _211
REMARK   91  A    between atoms: _210  and  _213
REMARK   92  A    between atoms: _213  and  _214
REMARK   93  A    between atoms: _217  and  _219
REMARK   94  A    between atoms: _219  and  _220
REMARK   95  A    between atoms: _219  and  _222
REMARK   96  A    between atoms: _222  and  _223
REMARK   97  A    between atoms: _226  and  _228
REMARK   98  A    between atoms: _228  and  _229
REMARK   99  A    between atoms: _228  and  _231
REMARK  100  A    between atoms: _231  and  _232
REMARK  101  A    between atoms: _235  and  _237
REMARK  102  A    between atoms: _237  and  _238
REMARK  103  A    between atoms: _237  and  _240
REMARK  104  A    between atoms: _240  and  _241
REMARK  105  A    between atoms: _243  and  _245
REMARK  106  A    between atoms: _245  and  _246
REMARK  107  A    between atoms: _245  and  _248
REMARK  108  A    between atoms: _248  and  _249
REMARK  109  A    between atoms: _259  and  _261
REMARK  110  A    between atoms: _261  and  _262
REMARK  111  A    between atoms: _261  and  _264
REMARK  112  A    between atoms: _264  and  _265
REMARK  113  A    between atoms: _268  and  _270
REMARK  114  A    between atoms: _270  and  _271
REMARK  115  A    between atoms: _270  and  _273
REMARK  116  A    between atoms: _273  and  _274
REMARK  117  A    between atoms: _277  and  _279
REMARK  118  A    between atoms: _279  and  _280
REMARK  119  A    between atoms: _279  and  _282
REMARK  120  A    between atoms: _282  and  _283
REMARK  121  A    between atoms: _283  and  _284
REMARK  122  A    between atoms: _284  and  _285
REMARK  123  A    between atoms: _285  and  _286
REMARK  124  A    between atoms: _290  and  _292
REMARK  125  A    between atoms: _292  and  _293
REMARK  126  A    between atoms: _292  and  _295
REMARK  127  A    between atoms: _295  and  _296
REMARK  128  A    between atoms: _299  and  _301
REMARK  129  A    between atoms: _301  and  _302
REMARK  130  A    between atoms: _305  and  _307
REMARK  131  A    between atoms: _307  and  _308
REMARK  132  A    between atoms: _311  and  _313
REMARK  133  A    between atoms: _313  and  _314
REMARK  134  A    between atoms: _313  and  _316
REMARK  135  A    between atoms: _316  and  _317
REMARK  136  A    between atoms: _321  and  _322
REMARK  137  A    between atoms: _327  and  _329
REMARK  138  A    between atoms: _329  and  _330
REMARK  139  A    between atoms: _329  and  _332
REMARK  140  A    between atoms: _332  and  _333
REMARK  141  A    between atoms: _338  and  _340
REMARK  142  A    between atoms: _340  and  _341
REMARK  143  A    between atoms: _340  and  _343
REMARK  144  A    between atoms: _343  and  _344
REMARK  145  A    between atoms: _347  and  _349
REMARK  146  A    between atoms: _349  and  _350
REMARK  147  A    between atoms: _349  and  _352
REMARK  148  A    between atoms: _352  and  _353
REMARK  149  A    between atoms: _359  and  _361
REMARK  150  A    between atoms: _361  and  _362
REMARK  151  A    between atoms: _361  and  _364
REMARK  152  A    between atoms: _367  and  _369
REMARK  153  A    between atoms: _369  and  _370
REMARK  154  A    between atoms: _369  and  _372
REMARK  155  A    between atoms: _375  and  _377
REMARK  156  A    between atoms: _377  and  _378
REMARK  157  A    between atoms: _380  and  _382
REMARK  158  A    between atoms: _382  and  _383
REMARK  159  A    between atoms: _385  and  _387
REMARK  160  A    between atoms: _387  and  _388
REMARK  161  A    between atoms: _387  and  _390
REMARK  162  A    between atoms: _390  and  _391
REMARK  163  A    between atoms: _394  and  _396
REMARK  164  A    between atoms: _396  and  _397
REMARK  165  A    between atoms: _396  and  _399
REMARK  166  A    between atoms: _399  and  _400
REMARK  167  A    between atoms: _400  and  _402
REMARK  168  A    between atoms: _402  and  MG_565
REMARK  169  A    between atoms: _403  and  _405
REMARK  170  A    between atoms: _405  and  _406
REMARK  171  A    between atoms: _405  and  _408
REMARK  172  A    between atoms: _408  and  _409
REMARK  173  A    between atoms: _414  and  _415
REMARK  174  A    between atoms: _417  and  _419
REMARK  175  A    between atoms: _419  and  _420
REMARK  176  A    between atoms: _419  and  _422
REMARK  177  A    between atoms: _422  and  _423
REMARK  178  A    between atoms: _426  and  _428
REMARK  179  A    between atoms: _428  and  _429
REMARK  180  A    between atoms: _428  and  _431
REMARK  181  A    between atoms: _431  and  _432
REMARK  182  A    between atoms: _432  and  _433
REMARK  183  A    between atoms: _436  and  _438
REMARK  184  A    between atoms: _438  and  _439
REMARK  185  A    between atoms: _438  and  _441
REMARK  186  A    between atoms: _441  and  _442
REMARK  187  A    between atoms: _442  and  _443
REMARK  188  A    between atoms: _443  and  _444
REMARK  189  A    between atoms: _453  and  _455
REMARK  190  A    between atoms: _455  and  _456
REMARK  191  A    between atoms: _455  and  _458
REMARK  192  A    between atoms: _458  and  _459
REMARK  193  A    between atoms: _464  and  _465
REMARK  194  A    between atoms: _467  and  _469
REMARK  195  A    between atoms: _469  and  _470
REMARK  196  A    between atoms: _469  and  _472
REMARK  197  A    between atoms: _472  and  _473
REMARK  198  A    between atoms: _473  and  _474
REMARK  199  A    between atoms: _474  and  _475
REMARK  200  A    between atoms: _484  and  _486
REMARK  201  A    between atoms: _486  and  _487
REMARK  202  A    between atoms: _486  and  _489
REMARK  203  A    between atoms: _489  and  _490
REMARK  204  A    between atoms: _493  and  _495
REMARK  205  A    between atoms: _495  and  _496
REMARK  206  A    between atoms: _498  and  _500
REMARK  207  A    between atoms: _500  and  _501
REMARK  208  A    between atoms: _500  and  _503
REMARK  209  A    between atoms: _503  and  _504
REMARK  210  A    between atoms: _507  and  _509
REMARK  211  A    between atoms: _509  and  _510
REMARK  212  A    between atoms: _509  and  _512
REMARK  213  A    between atoms: _512  and  _513
REMARK  214  A    between atoms: _518  and  _519
REMARK  215  A    between atoms: _521  and  _523
REMARK  216  A    between atoms: _523  and  _524
REMARK  217  A    between atoms: _523  and  _526
REMARK  218  A    between atoms: _526  and  _527
REMARK  219  A    between atoms: _533  and  _535
REMARK  220  A    between atoms: _535  and  _536
REMARK  221  A    between atoms: _535  and  _538
REMARK  222  A    between atoms: _538  and  _539
REMARK  223  A    between atoms: _545  and  _547
REMARK  224  A    between atoms: _547  and  _548
REMARK  225  A    between atoms: _547  and  _550
REMARK  226  A    between atoms: _550  and  _551
REMARK  227  A    between atoms: _554  and  _556
REMARK  228  A    between atoms: _556  and  _557
REMARK  229  A    between atoms: _556  and  _559
REMARK  230  A    between atoms: _559  and  _560
REMARK                            x       y       z     vdW  Elec       q    Type
REMARK                         _______ _______ _______ _____ _____    ______ ____
ROOT
ATOM      1  CA  ALA A   1     -10.297  24.588 118.360  0.00  0.00    +0.133 C 
ATOM      2  CB  ALA A   1     -10.526  23.218 118.967  0.00  0.00    +0.027 C 
ENDROOT
BRANCH   1   3
ATOM      3  N   ALA A   1     -10.124  25.590 119.407  0.00  0.00    -0.239 NA
ATOM      4  H   ALA A   1     -10.374  25.350 120.388  0.00  0.00    +0.142 HD
ENDBRANCH   1   3
BRANCH   1   5
ATOM      5  C   ALA A   1     -11.456  24.978 117.444  0.00  0.00    +0.224 C 
ATOM      6  O   ALA A   1     -12.267  25.836 117.793  0.00  0.00    -0.287 OA
ENDBRANCH   1   5
TORSDOF 2
REMARK  Name = ../refined-set-2016/4rhx/4rhx_pocket.pdb
REMARK  230 active torsions:
REMARK  status: ('A' for Active; 'I' for Inactive)
REMARK    1  A    between atoms: _1  and  _3
REMARK    2  A    between atoms: _3  and  _4
REMARK    3  A    between atoms: _3  and  _6
REMARK    4  A    between atoms: _6  and  _7
REMARK    5  A    between atoms: _10  and  _12
REMARK    6  A    between atoms: _12  and  _13
REMARK    7  A    between atoms: _12  and  _15
REMARK    8  A    between atoms: _18  and  _20
REMARK    9  A    between atoms: _20  and  _21
REMARK   10  A    between atoms: _20  and  _23
REMARK   11  A    between atoms: _23  and  _24
REMARK   12  A    between atoms: _27  and  _29
REMARK   13  A    between atoms: _29  and  _30
REMARK   14  A    between atoms: _29  and  _32
REMARK   15  A    between atoms: _32  and  _33
REMARK   16  A    between atoms: _33  and  _34
REMARK   17  A    between atoms: _34  and  _35
REMARK   18  A    between atoms: _35  and  _36
REMARK   19  A    between atoms: _40  and  _42
REMARK   20  A    between atoms: _42  and  _43
REMARK   21  A    between atoms: _45  and  _47
REMARK   22  A    between atoms: _47  and  _48
REMARK   23  A    between atoms: _51  and  _53
REMARK   24  A    between atoms: _53  and  _54
REMARK   25  A    between atoms: _53  and  _56
REMARK   26  A    between atoms: _59  and  _61
REMARK   27  A    between atoms: _61  and  _62
REMARK   28  A    between atoms: _61  and  _64
REMARK   29  A    between atoms: _64  and  _65
REMARK   30  A    between atoms: _65  and  _66
REMARK   31  A    between atoms: _68  and  _70
REMARK   32  A    between atoms: _70  and  _71
REMARK   33  A    between atoms: _74  and  _76
REMARK   34  A    between atoms: _76  and  _77
REMARK   35  A    between atoms: _76  and  _79
REMARK   36  A    between atoms: _82  and  _84
REMARK   37  A    between atoms: _84  and  _85
REMARK   38  A    between atoms: _84  and  _87
REMARK   39  A    between atoms: _87  and  _88
REMARK   40  A    between atoms: _90  and  _92
REMARK   41  A    between atoms: _92  and  _93
REMARK   42  A    between atoms: _92  and  _95
REMARK   43  A    between atoms: _95  and  _96
REMARK   44  A    between atoms: _98  and  _100
REMARK   45  A    between atoms: _100  and  _101
REMARK   46  A    between atoms: _100  and  _103
REMARK   47  A    between atoms: _103  and  _104
REMARK   48  A    between atoms: _109  and  _110
REMARK   49  A    between atoms: _112  and  _114
REMARK   50  A    between atoms: _114  and  _115
REMARK   51  A    between atoms: _117  and  _119
REMARK   52  A    between atoms: _119  and  _120
REMARK   53  A    between atoms: _119  and  _122
REMARK   54  A    between atoms: _125  and  _127
REMARK   55  A    between atoms: _127  and  _128
REMARK   56  A    between atoms: _127  and  _130
REMARK   57  A    between atoms: _130  and  _131
REMARK   58  A    between atoms: _131  and  _132
REMARK   59  A    between atoms: _132  and  _133
REMARK   60  A    between atoms: _142  and  _144
REMARK   61  A    between atoms: _144  and  _145
REMARK   62  A    between atoms: _144  and  _147
REMARK   63  A    between atoms: _147  and  _148
REMARK   64  A    between atoms: _151  and  _153
REMARK   65  A    between atoms: _153  and  _154
REMARK   66  A    between atoms: _153  and  _156
REMARK   67  A    between atoms: _156  and  _157
REMARK   68  A    between atoms: _157  and  _158
REMARK   69  A    between atoms: _161  and  _163
REMARK   70  A    between atoms: _163  and  _164
REMARK   71  A    between atoms: _163  and  _166
REMARK   72  A    between atoms: _166  and  _167
REMARK   73  A    between atoms: _170  and  _172
REMARK   74  A    between atoms: _172  and  _173
REMARK   75  A    between atoms: _172  and  _175
REMARK   76  A    between atoms: _178  and  _180
REMARK   77  A    between atoms: _180  and  _181
REMARK   78  A    between atoms: _180  and  _183
REMARK   79  A    between atoms: _186  and  _188
REMARK   80  A    between atoms: _188  and  _189
REMARK   81  A    between atoms: _188  and  _191
REMARK   82  A    between atoms: _191  and  _192
REMARK   83  A    between atoms: _195  and  _197
REMARK   84  A    between atoms: _197  and  _198
REMARK   85  A    between atoms: _197  and  _200
REMARK   86  A    between atoms: _200  and  _201
REMARK   87  A    between atoms: _203  and  _205
REMARK   88  A    between atoms: _205  and  _206
REMARK   89  A    between atoms: _208  and  _210
REMARK   90  A    between atoms: _210  and  _211
REMARK   91  A    between atoms: _210  and  _213
REMARK   92  A    between atoms: _213  and  _214
REMARK   93  A    between atoms: _217  and  _219
REMARK   94  A    between atoms: _219  and  _220
REMARK   95  A    between atoms: _219  and  _222
REMARK   96  A    between atoms: _222  and  _223
REMARK   97  A    between atoms: _226  and  _228
REMARK   98  A    between atoms: _228  and  _229
REMARK   99  A    between atoms: _228  and  _231
REMARK  100  A    between atoms: _231  and  _232
REMARK  101  A    between atoms: _235  and  _237
REMARK  102  A    between atoms: _237  and  _238
REMARK  103  A    between atoms: _237  and  _240
REMARK  104  A    between atoms: _240  and  _241
REMARK  105  A    between atoms: _243  and  _245
REMARK  106  A    between atoms: _245  and  _246
REMARK  107  A    between atoms: _245  and  _248
REMARK  108  A    between atoms: _248  and  _249
REMARK  109  A    between atoms: _259  and  _261
REMARK  110  A    between atoms: _261  and  _262
REMARK  111  A    between atoms: _261  and  _264
REMARK  112  A    between atoms: _264  and  _265
REMARK  113  A    between atoms: _268  and  _270
REMARK  114  A    between atoms: _270  and  _271
REMARK  115  A    between atoms: _270  and  _273
REMARK  116  A    between atoms: _273  and  _274
REMARK  117  A    between atoms: _277  and  _279
REMARK  118  A    between atoms: _279  and  _280
REMARK  119  A    between atoms: _279  and  _282
REMARK  120  A    between atoms: _282  and  _283
REMARK  121  A    between atoms: _283  and  _284
REMARK  122  A    between atoms: _284  and  _285
REMARK  123  A    between atoms: _285  and  _286
REMARK  124  A    between atoms: _290  and  _292
REMARK  125  A    between atoms: _292  and  _293
REMARK  126  A    between atoms: _292  and  _295
REMARK  127  A    between atoms: _295  and  _296
REMARK  128  A    between atoms: _299  and  _301
REMARK  129  A    between atoms: _301  and  _302
REMARK  130  A    between atoms: _305  and  _307
REMARK  131  A    between atoms: _307  and  _308
REMARK  132  A    between atoms: _311  and  _313
REMARK  133  A    between atoms: _313  and  _314
REMARK  134  A    between atoms: _313  and  _316
REMARK  135  A    between atoms: _316  and  _317
REMARK  136  A    between atoms: _321  and  _322
REMARK  137  A    between atoms: _327  and  _329
REMARK  138  A    between atoms: _329  and  _330
REMARK  139  A    between atoms: _329  and  _332
REMARK  140  A    between atoms: _332  and  _333
REMARK  141  A    between atoms: _338  and  _340
REMARK  142  A    between atoms: _340  and  _341
REMARK  143  A    between atoms: _340  and  _343
REMARK  144  A    between atoms: _343  and  _344
REMARK  145  A    between atoms: _347  and  _349
REMARK  146  A    between atoms: _349  and  _350
REMARK  147  A    between atoms: _349  and  _352
REMARK  148  A    between atoms: _352  and  _353
REMARK  149  A    between atoms: _359  and  _361
REMARK  150  A    between atoms: _361  and  _362
REMARK  151  A    between atoms: _361  and  _364
REMARK  152  A    between atoms: _367  and  _369
REMARK  153  A    between atoms: _369  and  _370
REMARK  154  A    between atoms: _369  and  _372
REMARK  155  A    between atoms: _375  and  _377
REMARK  156  A    between atoms: _377  and  _378
REMARK  157  A    between atoms: _380  and  _382
REMARK  158  A    between atoms: _382  and  _383
REMARK  159  A    between atoms: _385  and  _387
REMARK  160  A    between atoms: _387  and  _388
REMARK  161  A    between atoms: _387  and  _390
REMARK  162  A    between atoms: _390  and  _391
REMARK  163  A    between atoms: _394  and  _396
REMARK  164  A    between atoms: _396  and  _397
REMARK  165  A    between atoms: _396  and  _399
REMARK  166  A    between atoms: _399  and  _400
REMARK  167  A    between atoms: _400  and  _402
REMARK  168  A    between atoms: _402  and  MG_565
REMARK  169  A    between atoms: _403  and  _405
REMARK  170  A    between atoms: _405  and  _406
REMARK  171  A    between atoms: _405  and  _408
REMARK  172  A    between atoms: _408  and  _409
REMARK  173  A    between atoms: _414  and  _415
REMARK  174  A    between atoms: _417  and  _419
REMARK  175  A    between atoms: _419  and  _420
REMARK  176  A    between atoms: _419  and  _422
REMARK  177  A    between atoms: _422  and  _423
REMARK  178  A    between atoms: _426  and  _428
REMARK  179  A    between atoms: _428  and  _429
REMARK  180  A    between atoms: _428  and  _431
REMARK  181  A    between atoms: _431  and  _432
REMARK  182  A    between atoms: _432  and  _433
REMARK  183  A    between atoms: _436  and  _438
REMARK  184  A    between atoms: _438  and  _439
REMARK  185  A    between atoms: _438  and  _441
REMARK  186  A    between atoms: _441  and  _442
REMARK  187  A    between atoms: _442  and  _443
REMARK  188  A    between atoms: _443  and  _444
REMARK  189  A    between atoms: _453  and  _455
REMARK  190  A    between atoms: _455  and  _456
REMARK  191  A    between atoms: _455  and  _458
REMARK  192  A    between atoms: _458  and  _459
REMARK  193  A    between atoms: _464  and  _465
REMARK  194  A    between atoms: _467  and  _469
REMARK  195  A    between atoms: _469  and  _470
REMARK  196  A    between atoms: _469  and  _472
REMARK  197  A    between atoms: _472  and  _473
REMARK  198  A    between atoms: _473  and  _474
REMARK  199  A    between atoms: _474  and  _475
REMARK  200  A    between atoms: _484  and  _486
REMARK  201  A    between atoms: _486  and  _487
REMARK  202  A    between atoms: _486  and  _489
REMARK  203  A    between atoms: _489  and  _490
REMARK  204  A    between atoms: _493  and  _495
REMARK  205  A    between atoms: _495  and  _496
REMARK  206  A    between atoms: _498  and  _500
REMARK  207  A    between atoms: _500  and  _501
REMARK  208  A    between atoms: _500  and  _503
REMARK  209  A    between atoms: _503  and  _504
REMARK  210  A    between atoms: _507  and  _509
REMARK  211  A    between atoms: _509  and  _510
REMARK  212  A    between atoms: _509  and  _512
REMARK  213  A    between atoms: _512  and  _513
REMARK  214  A    between atoms: _518  and  _519
REMARK  215  A    between atoms: _521  and  _523
REMARK  216  A    between atoms: _523  and  _524
REMARK  217  A    between atoms: _523  and  _526
REMARK  218  A    between atoms: _526  and  _527
REMARK  219  A    between atoms: _533  and  _535
REMARK  220  A    between atoms: _535  and  _536
REMARK  221  A    between atoms: _535  and  _538
REMARK  222  A    between atoms: _538  and  _539
REMARK  223  A    between atoms: _545  and  _547
REMARK  224  A    between atoms: _547  and  _548
REMARK  225  A    between atoms: _547  and  _550
REMARK  226  A    between atoms: _550  and  _551
REMARK  227  A    between atoms: _554  and  _556
REMARK  228  A    between atoms: _556  and  _557
REMARK  229  A    between atoms: _556  and  _559
REMARK  230  A    between atoms: _559  and  _560
REMARK                            x       y       z     vdW  Elec       q    Type
REMARK                         _______ _______ _______ _____ _____    ______ ____
ROOT
ATOM      1  C   ASP A   4      -3.981  17.990 133.941  0.00  0.00    +0.241 C 
ATOM      2  N   PHE A   5      -2.837  17.315 133.945  0.00  0.00    -0.297 N 
ATOM      3  H   PHE A   5      -2.004  17.732 134.408  0.00  0.00    +0.150 HD
ATOM      4  O   ASP A   4      -5.008  17.566 133.410  0.00  0.00    -0.273 OA
ENDROOT
BRANCH   2   5
ATOM      5  CA  PHE A   5      -2.718  16.005 133.318  0.00  0.00    +0.153 C 
BRANCH   5   6
ATOM      6  C   PHE A   5      -3.410  14.941 134.163  0.00  0.00    +0.241 C 
ATOM      7  O   PHE A   5      -3.124  14.800 135.352  0.00  0.00    -0.273 OA
ATOM      8  N   VAL A   6      -4.324  14.196 133.551  0.00  0.00    -0.297 N 
ATOM      9  H   VAL A   6      -4.517  14.351 132.541  0.00  0.00    +0.150 HD
BRANCH   8  10
ATOM     10  CA  VAL A   6      -5.063  13.163 134.272  0.00  0.00    +0.149 C 
BRANCH  10  11
ATOM     11  C   VAL A   6      -4.873  11.781 133.653  0.00  0.00    +0.241 C 
ATOM     12  N   VAL A   7      -5.092  10.745 134.453  0.00  0.00    -0.297 N 
ATOM     13  H   VAL A   7      -5.319  10.919 135.453  0.00  0.00    +0.150 HD
ATOM     14  O   VAL A   6      -4.525  11.655 132.484  0.00  0.00    -0.273 OA
BRANCH  12  15
ATOM     15  CA  VAL A   7      -5.024   9.371 133.971  0.00  0.00    +0.149 C 
BRANCH  15  16
ATOM     16  C   VAL A   7      -6.215   8.582 134.496  0.00  0.00    +0.241 C 
ATOM     17  O   VAL A   7      -6.897   9.020 135.424  0.00  0.00    -0.273 OA
ATOM     18  N   GLY A   8      -6.457   7.417 133.907  0.00  0.00    -0.296 N 
ATOM     19  H   GLY A   8      -5.853   7.109 133.118  0.00  0.00    +0.150 HD
BRANCH  18  20
ATOM     20  CA  GLY A   8      -7.548   6.565 134.343  0.00  0.00    +0.163 C 
BRANCH  20  21
ATOM     21  C   GLY A   8      -8.695   6.541 133.353  0.00  0.00    +0.229 C 
ATOM     22  O   GLY A   8      -8.856   7.467 132.557  0.00  0.00    -0.286 OA
ENDBRANCH  20  21
ENDBRANCH  18  20
ENDBRANCH  15  16
BRANCH  15  23
ATOM     23  CB  VAL A   7      -3.724   8.666 134.407  0.00  0.00    +0.027 C 
ATOM     24  CG2 VAL A   7      -3.639   8.602 135.923  0.00  0.00    +0.002 C 
ATOM     25  CG1 VAL A   7      -2.504   9.367 133.824  0.00  0.00    +0.002 C 
ENDBRANCH  15  23
ENDBRANCH  12  15
ENDBRANCH  10  11
BRANCH  10  26
ATOM     26  CB  VAL A   6      -6.572  13.479 134.327  0.00  0.00    +0.027 C 
ATOM     27  CG2 VAL A   6      -6.820  14.758 135.112  0.00  0.00    +0.002 C 
ATOM     28  CG1 VAL A   6      -7.148  13.586 132.924  0.00  0.00    +0.002 C 
ENDBRANCH  10  26
ENDBRANCH   8  10
ENDBRANCH   5   6
BRANCH   5  29
ATOM     29  CB  PHE A   5      -1.244  15.644 133.106  0.00  0.00    +0.055 C 
BRANCH  29  30
ATOM     30  CG  PHE A   5      -1.034  14.457 132.209  0.00  0.00    -0.020 A 
ATOM     31  CD2 PHE A   5      -0.926  13.180 132.736  0.00  0.00    -0.004 A 
ATOM     32  CE2 PHE A   5      -0.734  12.087 131.910  0.00  0.00    -0.000 A 
ATOM     33  CZ  PHE A   5      -0.649  12.262 130.540  0.00  0.00    -0.000 A 
ATOM     34  CE1 PHE A   5      -0.756  13.530 130.002  0.00  0.00    -0.000 A 
ATOM     35  CD1 PHE A   5      -0.947  14.620 130.835  0.00  0.00    -0.004 A 
ENDBRANCH  29  30
ENDBRANCH   5  29
ENDBRANCH   2   5
BRANCH   1  36
ATOM     36  CA  ASP A   4      -3.961  19.351 134.636  0.00  0.00    +0.160 C 
BRANCH  36  38
ATOM     37  C   ASN A   3      -4.731  20.600 132.677  0.00  0.00    +0.241 C 
ATOM     38  N   ASP A   4      -4.820  20.336 133.978  0.00  0.00    -0.297 N 
ATOM     39  H   ASP A   4      -5.524  20.847 134.547  0.00  0.00    +0.150 HD
ATOM     40  O   ASN A   3      -3.968  19.997 131.919  0.00  0.00    -0.273 OA
BRANCH  37  41
ATOM     41  CA  ASN A   3      -5.647  21.702 132.140  0.00  0.00    +0.158 C 
BRANCH  41  43
ATOM     42  C   PRO A   2      -7.762  21.288 133.292  0.00  0.00    +0.241 C 
ATOM     43  N   ASN A   3      -6.716  22.074 133.063  0.00  0.00    -0.297 N 
ATOM     44  H   ASN A   3      -6.656  22.986 133.558  0.00  0.00    +0.150 HD
ATOM     45  O   PRO A   2      -7.868  20.151 132.829  0.00  0.00    -0.273 OA
BRANCH  42  51
ATOM     46  C   ILE A   1     -10.784  20.727 133.219  0.00  0.00    +0.241 C 
ATOM     47  N   PRO A   2     -10.025  20.973 134.302  0.00  0.00    -0.272 N 
ATOM     48  CD  PRO A   2     -10.272  20.571 135.698  0.00  0.00    +0.094 C 
ATOM     49  CG  PRO A   2      -8.956  20.832 136.357  0.00  0.00    +0.024 C 
ATOM     50  CB  PRO A   2      -8.374  22.001 135.636  0.00  0.00    +0.031 C 
ATOM     51  CA  PRO A   2      -8.862  21.863 134.187  0.00  0.00    +0.152 C 
ATOM     52  O   ILE A   1     -10.592  21.282 132.138  0.00  0.00    -0.273 OA
BRANCH  46  53
ATOM     53  CA  ILE A   1     -11.935  19.732 133.378  0.00  0.00    +0.145 C 
BRANCH  53  54
ATOM     54  CB  ILE A   1     -11.380  18.286 133.380  0.00  0.00    +0.025 C 
ATOM     55  CG2 ILE A   1     -12.509  17.276 133.517  0.00  0.00    +0.002 C 
BRANCH  54  56
ATOM     56  CG1 ILE A   1     -10.563  18.013 132.115  0.00  0.00    +0.002 C 
ATOM     57  CD1 ILE A   1      -9.882  16.657 132.121  0.00  0.00    +0.000 C 
ENDBRANCH  54  56
ENDBRANCH  53  54
BRANCH  53  58
ATOM     58  N   ILE A   1     -12.927  19.916 132.323  0.00  0.00    -0.238 NA
ATOM     59  H   ILE A   1     -12.622  19.878 131.329  0.00  0.00    +0.142 HD
ENDBRANCH  53  58
ENDBRANCH  46  53
ENDBRANCH  42  51
ENDBRANCH  41  43
BRANCH  41  60
ATOM     60  CB  ASN A   3      -4.819  22.943 131.787  0.00  0.00    +0.114 C 
BRANCH  60  61
ATOM     61  CG  ASN A   3      -3.708  22.645 130.798  0.00  0.00    +0.222 C 
ATOM     62  ND2 ASN A   3      -2.471  22.629 131.285  0.00  0.00    -0.329 N 
ATOM     63 HD21 ASN A   3      -2.308  22.812 132.296  0.00  0.00    +0.145 HD
ATOM     64 HD22 ASN A   3      -1.667  22.434 130.655  0.00  0.00    +0.145 HD
ATOM     65  OD1 ASN A   3      -3.956  22.435 129.610  0.00  0.00    -0.275 OA
ENDBRANCH  60  61
ENDBRANCH  41  60
ENDBRANCH  37  41
ENDBRANCH  36  38
BRANCH  36  66
ATOM     66  CB  ASP A   4      -4.371  19.183 136.101  0.00  0.00    +0.143 C 
BRANCH  66  67
ATOM     67  CG  ASP A   4      -4.292  20.481 136.881  0.00  0.00    +0.367 C 
ATOM     68  OD2 ASP A   4      -4.071  20.424 138.109  0.00  0.00    -0.246 OA
ATOM     69  OD1 ASP A   4      -4.448  21.557 136.268  0.00  0.00    -0.246 OA
ENDBRANCH  66  67
ENDBRANCH  36  66
ENDBRANCH   1  36
TORSDOF 25
REMARK  Name = ../refined-set-2016/4rhx/4rhx_pocket.pdb
REMARK  230 active torsions:
REMARK  status: ('A' for Active; 'I' for Inactive)
REMARK    1  A    between atoms: _1  and  _3
REMARK    2  A    between atoms: _3  and  _4
REMARK    3  A    between atoms: _3  and  _6
REMARK    4  A    between atoms: _6  and  _7
REMARK    5  A    between atoms: _10  and  _12
REMARK    6  A    between atoms: _12  and  _13
REMARK    7  A    between atoms: _12  and  _15
REMARK    8  A    between atoms: _18  and  _20
REMARK    9  A    between atoms: _20  and  _21
REMARK   10  A    between atoms: _20  and  _23
REMARK   11  A    between atoms: _23  and  _24
REMARK   12  A    between atoms: _27  and  _29
REMARK   13  A    between atoms: _29  and  _30
REMARK   14  A    between atoms: _29  and  _32
REMARK   15  A    between atoms: _32  and  _33
REMARK   16  A    between atoms: _33  and  _34
REMARK   17  A    between atoms: _34  and  _35
REMARK   18  A    between atoms: _35  and  _36
REMARK   19  A    between atoms: _40  and  _42
REMARK   20  A    between atoms: _42  and  _43
REMARK   21  A    between atoms: _45  and  _47
REMARK   22  A    between atoms: _47  and  _48
REMARK   23  A    between atoms: _51  and  _53
REMARK   24  A    between atoms: _53  and  _54
REMARK   25  A    between atoms: _53  and  _56
REMARK   26  A    between atoms: _59  and  _61
REMARK   27  A    between atoms: _61  and  _62
REMARK   28  A    between atoms: _61  and  _64
REMARK   29  A    between atoms: _64  and  _65
REMARK   30  A    between atoms: _65  and  _66
REMARK   31  A    between atoms: _68  and  _70
REMARK   32  A    between atoms: _70  and  _71
REMARK   33  A    between atoms: _74  and  _76
REMARK   34  A    between atoms: _76  and  _77
REMARK   35  A    between atoms: _76  and  _79
REMARK   36  A    between atoms: _82  and  _84
REMARK   37  A    between atoms: _84  and  _85
REMARK   38  A    between atoms: _84  and  _87
REMARK   39  A    between atoms: _87  and  _88
REMARK   40  A    between atoms: _90  and  _92
REMARK   41  A    between atoms: _92  and  _93
REMARK   42  A    between atoms: _92  and  _95
REMARK   43  A    between atoms: _95  and  _96
REMARK   44  A    between atoms: _98  and  _100
REMARK   45  A    between atoms: _100  and  _101
REMARK   46  A    between atoms: _100  and  _103
REMARK   47  A    between atoms: _103  and  _104
REMARK   48  A    between atoms: _109  and  _110
REMARK   49  A    between atoms: _112  and  _114
REMARK   50  A    between atoms: _114  and  _115
REMARK   51  A    between atoms: _117  and  _119
REMARK   52  A    between atoms: _119  and  _120
REMARK   53  A    between atoms: _119  and  _122
REMARK   54  A    between atoms: _125  and  _127
REMARK   55  A    between atoms: _127  and  _128
REMARK   56  A    between atoms: _127  and  _130
REMARK   57  A    between atoms: _130  and  _131
REMARK   58  A    between atoms: _131  and  _132
REMARK   59  A    between atoms: _132  and  _133
REMARK   60  A    between atoms: _142  and  _144
REMARK   61  A    between atoms: _144  and  _145
REMARK   62  A    between atoms: _144  and  _147
REMARK   63  A    between atoms: _147  and  _148
REMARK   64  A    between atoms: _151  and  _153
REMARK   65  A    between atoms: _153  and  _154
REMARK   66  A    between atoms: _153  and  _156
REMARK   67  A    between atoms: _156  and  _157
REMARK   68  A    between atoms: _157  and  _158
REMARK   69  A    between atoms: _161  and  _163
REMARK   70  A    between atoms: _163  and  _164
REMARK   71  A    between atoms: _163  and  _166
REMARK   72  A    between atoms: _166  and  _167
REMARK   73  A    between atoms: _170  and  _172
REMARK   74  A    between atoms: _172  and  _173
REMARK   75  A    between atoms: _172  and  _175
REMARK   76  A    between atoms: _178  and  _180
REMARK   77  A    between atoms: _180  and  _181
REMARK   78  A    between atoms: _180  and  _183
REMARK   79  A    between atoms: _186  and  _188
REMARK   80  A    between atoms: _188  and  _189
REMARK   81  A    between atoms: _188  and  _191
REMARK   82  A    between atoms: _191  and  _192
REMARK   83  A    between atoms: _195  and  _197
REMARK   84  A    between atoms: _197  and  _198
REMARK   85  A    between atoms: _197  and  _200
REMARK   86  A    between atoms: _200  and  _201
REMARK   87  A    between atoms: _203  and  _205
REMARK   88  A    between atoms: _205  and  _206
REMARK   89  A    between atoms: _208  and  _210
REMARK   90  A    between atoms: _210  and  _211
REMARK   91  A    between atoms: _210  and  _213
REMARK   92  A    between atoms: _213  and  _214
REMARK   93  A    between atoms: _217  and  _219
REMARK   94  A    between atoms: _219  and  _220
REMARK   95  A    between atoms: _219  and  _222
REMARK   96  A    between atoms: _222  and  _223
REMARK   97  A    between atoms: _226  and  _228
REMARK   98  A    between atoms: _228  and  _229
REMARK   99  A    between atoms: _228  and  _231
REMARK  100  A    between atoms: _231  and  _232
REMARK  101  A    between atoms: _235  and  _237
REMARK  102  A    between atoms: _237  and  _238
REMARK  103  A    between atoms: _237  and  _240
REMARK  104  A    between atoms: _240  and  _241
REMARK  105  A    between atoms: _243  and  _245
REMARK  106  A    between atoms: _245  and  _246
REMARK  107  A    between atoms: _245  and  _248
REMARK  108  A    between atoms: _248  and  _249
REMARK  109  A    between atoms: _259  and  _261
REMARK  110  A    between atoms: _261  and  _262
REMARK  111  A    between atoms: _261  and  _264
REMARK  112  A    between atoms: _264  and  _265
REMARK  113  A    between atoms: _268  and  _270
REMARK  114  A    between atoms: _270  and  _271
REMARK  115  A    between atoms: _270  and  _273
REMARK  116  A    between atoms: _273  and  _274
REMARK  117  A    between atoms: _277  and  _279
REMARK  118  A    between atoms: _279  and  _280
REMARK  119  A    between atoms: _279  and  _282
REMARK  120  A    between atoms: _282  and  _283
REMARK  121  A    between atoms: _283  and  _284
REMARK  122  A    between atoms: _284  and  _285
REMARK  123  A    between atoms: _285  and  _286
REMARK  124  A    between atoms: _290  and  _292
REMARK  125  A    between atoms: _292  and  _293
REMARK  126  A    between atoms: _292  and  _295
REMARK  127  A    between atoms: _295  and  _296
REMARK  128  A    between atoms: _299  and  _301
REMARK  129  A    between atoms: _301  and  _302
REMARK  130  A    between atoms: _305  and  _307
REMARK  131  A    between atoms: _307  and  _308
REMARK  132  A    between atoms: _311  and  _313
REMARK  133  A    between atoms: _313  and  _314
REMARK  134  A    between atoms: _313  and  _316
REMARK  135  A    between atoms: _316  and  _317
REMARK  136  A    between atoms: _321  and  _322
REMARK  137  A    between atoms: _327  and  _329
REMARK  138  A    between atoms: _329  and  _330
REMARK  139  A    between atoms: _329  and  _332
REMARK  140  A    between atoms: _332  and  _333
REMARK  141  A    between atoms: _338  and  _340
REMARK  142  A    between atoms: _340  and  _341
REMARK  143  A    between atoms: _340  and  _343
REMARK  144  A    between atoms: _343  and  _344
REMARK  145  A    between atoms: _347  and  _349
REMARK  146  A    between atoms: _349  and  _350
REMARK  147  A    between atoms: _349  and  _352
REMARK  148  A    between atoms: _352  and  _353
REMARK  149  A    between atoms: _359  and  _361
REMARK  150  A    between atoms: _361  and  _362
REMARK  151  A    between atoms: _361  and  _364
REMARK  152  A    between atoms: _367  and  _369
REMARK  153  A    between atoms: _369  and  _370
REMARK  154  A    between atoms: _369  and  _372
REMARK  155  A    between atoms: _375  and  _377
REMARK  156  A    between atoms: _377  and  _378
REMARK  157  A    between atoms: _380  and  _382
REMARK  158  A    between atoms: _382  and  _383
REMARK  159  A    between atoms: _385  and  _387
REMARK  160  A    between atoms: _387  and  _388
REMARK  161  A    between atoms: _387  and  _390
REMARK  162  A    between atoms: _390  and  _391
REMARK  163  A    between atoms: _394  and  _396
REMARK  164  A    between atoms: _396  and  _397
REMARK  165  A    between atoms: _396  and  _399
REMARK  166  A    between atoms: _399  and  _400
REMARK  167  A    between atoms: _400  and  _402
REMARK  168  A    between atoms: _402  and  MG_565
REMARK  169  A    between atoms: _403  and  _405
REMARK  170  A    between atoms: _405  and  _406
REMARK  171  A    between atoms: _405  and  _408
REMARK  172  A    between atoms: _408  and  _409
REMARK  173  A    between atoms: _414  and  _415
REMARK  174  A    between atoms: _417  and  _419
REMARK  175  A    between atoms: _419  and  _420
REMARK  176  A    between atoms: _419  and  _422
REMARK  177  A    between atoms: _422  and  _423
REMARK  178  A    between atoms: _426  and  _428
REMARK  179  A    between atoms: _428  and  _429
REMARK  180  A    between atoms: _428  and  _431
REMARK  181  A    between atoms: _431  and  _432
REMARK  182  A    between atoms: _432  and  _433
REMARK  183  A    between atoms: _436  and  _438
REMARK  184  A    between atoms: _438  and  _439
REMARK  185  A    between atoms: _438  and  _441
REMARK  186  A    between atoms: _441  and  _442
REMARK  187  A    between atoms: _442  and  _443
REMARK  188  A    between atoms: _443  and  _444
REMARK  189  A    between atoms: _453  and  _455
REMARK  190  A    between atoms: _455  and  _456
REMARK  191  A    between atoms: _455  and  _458
REMARK  192  A    between atoms: _458  and  _459
REMARK  193  A    between atoms: _464  and  _465
REMARK  194  A    between atoms: _467  and  _469
REMARK  195  A    between atoms: _469  and  _470
REMARK  196  A    between atoms: _469  and  _472
REMARK  197  A    between atoms: _472  and  _473
REMARK  198  A    between atoms: _473  and  _474
REMARK  199  A    between atoms: _474  and  _475
REMARK  200  A    between atoms: _484  and  _486
REMARK  201  A    between atoms: _486  and  _487
REMARK  202  A    between atoms: _486  and  _489
REMARK  203  A    between atoms: _489  and  _490
REMARK  204  A    between atoms: _493  and  _495
REMARK  205  A    between atoms: _495  and  _496
REMARK  206  A    between atoms: _498  and  _500
REMARK  207  A    between atoms: _500  and  _501
REMARK  208  A    between atoms: _500  and  _503
REMARK  209  A    between atoms: _503  and  _504
REMARK  210  A    between atoms: _507  and  _509
REMARK  211  A    between atoms: _509  and  _510
REMARK  212  A    between atoms: _509  and  _512
REMARK  213  A    between atoms: _512  and  _513
REMARK  214  A    between atoms: _518  and  _519
REMARK  215  A    between atoms: _521  and  _523
REMARK  216  A    between atoms: _523  and  _524
REMARK  217  A    between atoms: _523  and  _526
REMARK  218  A    between atoms: _526  and  _527
REMARK  219  A    between atoms: _533  and  _535
REMARK  220  A    between atoms: _535  and  _536
REMARK  221  A    between atoms: _535  and  _538
REMARK  222  A    between atoms: _538  and  _539
REMARK  223  A    between atoms: _545  and  _547
REMARK  224  A    between atoms: _547  and  _548
REMARK  225  A    between atoms: _547  and  _550
REMARK  226  A    between atoms: _550  and  _551
REMARK  227  A    between atoms: _554  and  _556
REMARK  228  A    between atoms: _556  and  _557
REMARK  229  A    between atoms: _556  and  _559
REMARK  230  A    between atoms: _559  and  _560
REMARK                            x       y       z     vdW  Elec       q    Type
REMARK                         _______ _______ _______ _____ _____    ______ ____
ROOT
ATOM      1  CA  GLU A   6       0.453   3.210 128.391  0.00  0.00    +0.000 C 
ENDROOT
BRANCH   1   4
ATOM      2  C   ASP A   5       2.505   4.477 129.000  0.00  0.00    +0.000 C 
ATOM      3  O   ASP A   5       3.097   3.509 129.481  0.00  0.00    +0.000 OA
ATOM      4  N   GLU A   6       1.262   4.428 128.518  0.00  0.00    +0.000 N 
ATOM      5  H   GLU A   6       0.833   5.323 128.208  0.00  0.00    +0.000 HD
BRANCH   2   6
ATOM      6  CA  ASP A   5       3.167   5.854 128.952  0.00  0.00    +0.000 C 
BRANCH   6   9
ATOM      7  C   TYR A   4       1.736   6.775 130.713  0.00  0.00    +0.000 C 
ATOM      8  O   TYR A   4       1.982   5.857 131.495  0.00  0.00    +0.000 OA
ATOM      9  N   ASP A   5       2.274   6.872 129.500  0.00  0.00    +0.000 N 
ATOM     10  H   ASP A   5       2.050   7.705 128.919  0.00  0.00    +0.000 HD
BRANCH   7  11
ATOM     11  CA  TYR A   4       0.752   7.871 131.098  0.00  0.00    +0.000 C 
BRANCH  11  13
ATOM     12  C   UNK A   3      -1.573   7.780 130.407  0.00  0.00    +0.000 C 
ATOM     13  N   TYR A   4      -0.575   7.279 131.124  0.00  0.00    +0.000 N 
ATOM     14  H   TYR A   4      -0.747   6.443 131.718  0.00  0.00    +0.000 HD
ATOM     15  O   UNK A   3      -1.589   8.934 129.992  0.00  0.00    +0.000 OA
BRANCH  12  16
ATOM     16  C   UNK A   3      -2.710   6.812 130.117  0.00  0.00    +0.000 C 
BRANCH  16  19
ATOM     17  C   LEU A   2      -5.070   7.292 130.429  0.00  0.00    +0.000 C 
ATOM     18  O   LEU A   2      -5.079   6.737 131.529  0.00  0.00    +0.000 OA
ATOM     19  N   UNK A   3      -3.963   7.438 129.707  0.00  0.00    +0.000 N 
ATOM     20  H   UNK A   3      -3.990   8.007 128.837  0.00  0.00    +0.000 HD
BRANCH  17  21
ATOM     21  CA  LEU A   2      -6.353   7.871 129.839  0.00  0.00    +0.000 C 
BRANCH  21  23
ATOM     22  C   GLY A   1      -7.510   5.847 129.098  0.00  0.00    +0.000 C 
ATOM     23  N   LEU A   2      -7.444   6.899 129.909  0.00  0.00    +0.000 N 
ATOM     24  H   LEU A   2      -8.194   7.035 130.617  0.00  0.00    +0.000 HD
ATOM     25  O   GLY A   1      -6.660   5.606 128.241  0.00  0.00    +0.000 OA
BRANCH  22  26
ATOM     26  CA  GLY A   1      -8.712   4.935 129.269  0.00  0.00    +0.000 C 
BRANCH  26  27
ATOM     27  N   GLY A   1      -9.180   4.834 130.639  0.00  0.00    +0.000 NA
ATOM     28  H   GLY A   1      -8.661   4.230 131.308  0.00  0.00    +0.000 HD
ENDBRANCH  26  27
ENDBRANCH  22  26
ENDBRANCH  21  23
BRANCH  21  29
ATOM     29  CB  LEU A   2      -6.729   9.165 130.574  0.00  0.00    +0.000 C 
BRANCH  29  30
ATOM     30  CG  LEU A   2      -7.686  10.170 129.917  0.00  0.00    +0.000 C 
ATOM     31  CD2 LEU A   2      -9.101   9.617 129.769  0.00  0.00    +0.000 C 
ATOM     32  CD1 LEU A   2      -7.145  10.635 128.577  0.00  0.00    +0.000 C 
ENDBRANCH  29  30
ENDBRANCH  21  29
ENDBRANCH  17  21
ENDBRANCH  16  19
BRANCH  16  33
ATOM     33  C   UNK A   3      -2.226   5.845 129.038  0.00  0.00    +0.000 C 
BRANCH  33  34
ATOM     34  C   UNK A   3      -1.615   6.565 127.851  0.00  0.00    +0.000 C 
ATOM     35  O   UNK A   3      -0.446   6.282 127.507  0.00  0.00    +0.000 OA
BRANCH  34  36
ATOM     36  O   UNK A   3      -2.306   7.421 127.262  0.00  0.00    +0.000 OA
BRANCH  36  37
ATOM     37 MG   UNK A   3      -2.148   8.732 125.692  0.00  0.00    +0.000 Mg
ATOM     38  O   UNK A   3      -1.367  10.035 124.305  0.00  0.00    +0.000 OA
ENDBRANCH  36  37
ENDBRANCH  34  36
ENDBRANCH  33  34
ENDBRANCH  16  33
ENDBRANCH  12  16
ENDBRANCH  11  13
BRANCH  11  39
ATOM     39  CB  TYR A   4       1.135   8.492 132.439  0.00  0.00    +0.000 C 
BRANCH  39  40
ATOM     40  CG  TYR A   4       2.546   9.036 132.437  0.00  0.00    +0.000 A 
ATOM     41  CD2 TYR A   4       3.560   8.399 133.142  0.00  0.00    +0.000 A 
ATOM     42  CE2 TYR A   4       4.854   8.887 133.133  0.00  0.00    +0.000 A 
ATOM     43  CZ  TYR A   4       5.150  10.021 132.404  0.00  0.00    +0.000 A 
ATOM     44  CE1 TYR A   4       4.163  10.666 131.688  0.00  0.00    +0.000 A 
ATOM     45  CD1 TYR A   4       2.872  10.170 131.704  0.00  0.00    +0.000 A 
BRANCH  43  46
ATOM     46  OH  TYR A   4       6.437  10.511 132.390  0.00  0.00    +0.000 OA
ATOM     47  HH  TYR A   4       7.014   9.935 132.951  0.00  0.00    +0.000 HD
ENDBRANCH  43  46
ENDBRANCH  39  40
ENDBRANCH  11  39
ENDBRANCH   7  11
ENDBRANCH   6   9
BRANCH   6  48
ATOM     48  CB  ASP A   5       4.501   5.842 129.706  0.00  0.00    +0.000 C 
BRANCH  48  49
ATOM     49  CG  ASP A   5       5.601   5.139 128.933  0.00  0.00    +0.000 C 
ATOM     50  OD2 ASP A   5       6.533   4.607 129.574  0.00  0.00    +0.000 OA
ATOM     51  OD1 ASP A   5       5.534   5.123 127.686  0.00  0.00    +0.000 OA
ENDBRANCH  48  49
ENDBRANCH   6  48
ENDBRANCH   2   6
ENDBRANCH   1   4
BRANCH   1  52
ATOM     52  C   GLU A   6      -0.059   2.643 129.721  0.00  0.00    +0.000 C 
ATOM     53  N   ARG A   7       0.362   3.226 130.840  0.00  0.00    +0.000 N 
ATOM     54  H   ARG A   7       1.038   4.014 130.785  0.00  0.00    +0.000 HD
ATOM     55  O   GLU A   6      -0.841   1.692 129.726  0.00  0.00    +0.000 OA
BRANCH  53  56
ATOM     56  CA  ARG A   7      -0.114   2.773 132.146  0.00  0.00    +0.000 C 
BRANCH  56  57
ATOM     57  C   ARG A   7      -1.364   3.530 132.589  0.00  0.00    +0.000 C 
ATOM     58  N   TYR A   8      -2.046   2.982 133.596  0.00  0.00    +0.000 N 
ATOM     59  H   TYR A   8      -1.764   2.031 133.908  0.00  0.00    +0.000 HD
ATOM     60  O   ARG A   7      -1.699   4.566 132.019  0.00  0.00    +0.000 OA
BRANCH  58  61
ATOM     61  CA  TYR A   8      -3.167   3.625 134.297  0.00  0.00    +0.000 C 
BRANCH  61  62
ATOM     62  C   TYR A   8      -4.489   3.647 133.527  0.00  0.00    +0.000 C 
ATOM     63  O   TYR A   8      -5.481   4.175 134.031  0.00  0.00    +0.000 OA
ATOM     64  N   ARG A   9      -4.517   3.076 132.325  0.00  0.00    +0.000 N 
ATOM     65  H   ARG A   9      -3.652   2.645 131.940  0.00  0.00    +0.000 HD
BRANCH  64  66
ATOM     66  CA  ARG A   9      -5.751   3.048 131.539  0.00  0.00    +0.000 C 
BRANCH  66  67
ATOM     67  C   ARG A   9      -6.856   2.251 132.233  0.00  0.00    +0.000 C 
ATOM     68  O   ARG A   9      -8.041   2.517 132.032  0.00  0.00    +0.000 OA
ENDBRANCH  66  67
BRANCH  66  69
ATOM     69  CB  ARG A   9      -5.508   2.454 130.147  0.00  0.00    +0.000 C 
BRANCH  69  70
ATOM     70  CG  ARG A   9      -4.567   3.241 129.248  0.00  0.00    +0.000 C 
BRANCH  70  71
ATOM     71  CD  ARG A   9      -4.735   2.802 127.795  0.00  0.00    +0.000 C 
BRANCH  71  72
ATOM     72  NE  ARG A   9      -3.654   3.266 126.928  0.00  0.00    +0.330 N 
ATOM     73  HE  ARG A   9      -2.826   2.648 126.813  0.00  0.00    +0.000 HD
ATOM     74  CZ  ARG A   9      -3.658   4.425 126.277  0.00  0.00    +0.000 C 
ATOM     75  NH2 ARG A   9      -4.682   5.259 126.401  0.00  0.00    +0.330 N 
ATOM     76 HH21 ARG A   9      -5.487   5.007 127.010  0.00  0.00    +0.000 HD
ATOM     77 HH22 ARG A   9      -4.680   6.164 125.889  0.00  0.00    +0.000 HD
ATOM     78  NH1 ARG A   9      -2.629   4.757 125.507  0.00  0.00    +0.330 N 
ATOM     79 HH11 ARG A   9      -1.820   4.110 125.413  0.00  0.00    +0.000 HD
ATOM     80 HH12 ARG A   9      -2.632   5.664 124.998  0.00  0.00    +0.000 HD
ENDBRANCH  71  72
ENDBRANCH  70  71
ENDBRANCH  69  70
ENDBRANCH  66  69
ENDBRANCH  64  66
ENDBRANCH  61  62
BRANCH  61  81
ATOM     81  CB  TYR A   8      -2.808   5.064 134.694  0.00  0.00    +0.000 C 
BRANCH  81  82
ATOM     82  CG  TYR A   8      -1.529   5.196 135.493  0.00  0.00    +0.000 A 
ATOM     83  CD2 TYR A   8      -1.428   4.662 136.770  0.00  0.00    +0.000 A 
ATOM     84  CE2 TYR A   8      -0.263   4.784 137.507  0.00  0.00    +0.000 A 
ATOM     85  CZ  TYR A   8       0.817   5.451 136.969  0.00  0.00    +0.000 A 
ATOM     86  CE1 TYR A   8       0.741   5.996 135.705  0.00  0.00    +0.000 A 
ATOM     87  CD1 TYR A   8      -0.429   5.869 134.975  0.00  0.00    +0.000 A 
BRANCH  85  88
ATOM     88  OH  TYR A   8       1.975   5.573 137.704  0.00  0.00    +0.000 OA
ATOM     89  HH  TYR A   8       1.857   5.128 138.580  0.00  0.00    +0.000 HD
ENDBRANCH  85  88
ENDBRANCH  81  82
ENDBRANCH  61  81
ENDBRANCH  58  61
ENDBRANCH  56  57
BRANCH  56  90
ATOM     90  CB  ARG A   7       0.978   2.927 133.207  0.00  0.00    +0.000 C 
BRANCH  90  91
ATOM     91  CG  ARG A   7       2.258   2.165 132.913  0.00  0.00    +0.000 C 
BRANCH  91  92
ATOM     92  CD  ARG A   7       3.138   2.091 134.151  0.00  0.00    +0.000 C 
BRANCH  92  93
ATOM     93  NE  ARG A   7       2.701   1.041 135.067  0.00  0.00    +0.330 N 
ATOM     94  CZ  ARG A   7       2.890   1.068 136.383  0.00  0.00    +0.000 C 
ATOM     95  NH2 ARG A   7       2.462   0.064 137.137  0.00  0.00    +0.330 N 
ATOM     96 HH21 ARG A   7       2.611   0.086 138.166  0.00  0.00    +0.000 HD
ATOM     97 HH22 ARG A   7       1.978  -0.746 136.699  0.00  0.00    +0.000 HD
ATOM     98  NH1 ARG A   7       3.501   2.102 136.946  0.00  0.00    +0.330 N 
ATOM     99 HH11 ARG A   7       3.648   2.122 137.975  0.00  0.00    +0.000 HD
ATOM    100 HH12 ARG A   7       3.833   2.893 136.358  0.00  0.00    +0.000 HD
ATOM    101  HE  ARG A   7       2.210   0.218 134.664  0.00  0.00    +0.000 HD
ENDBRANCH  92  93
ENDBRANCH  91  92
ENDBRANCH  90  91
ENDBRANCH  56  90
ENDBRANCH  53  56
ENDBRANCH   1  52
BRANCH   1 102
ATOM    102  CB  GLU A   6       1.228   2.120 127.638  0.00  0.00    +0.000 C 
BRANCH 102 103
ATOM    103  CG  GLU A   6       1.683   2.526 126.242  0.00  0.00    +0.000 C 
BRANCH 103 104
ATOM    104  CD  GLU A   6       0.541   3.014 125.365  0.00  0.00    +0.000 C 
ATOM    105  OE2 GLU A   6      -0.575   2.458 125.460  0.00  0.00    +0.000 OA
ATOM    106  OE1 GLU A   6       0.762   3.960 124.580  0.00  0.00    +0.000 OA
ENDBRANCH 103 104
ENDBRANCH 102 103
ENDBRANCH   1 102
TORSDOF 43
REMARK  Name = ../refined-set-2016/4rhx/4rhx_pocket.pdb
REMARK  230 active torsions:
REMARK  status: ('A' for Active; 'I' for Inactive)
REMARK    1  A    between atoms: _1  and  _3
REMARK    2  A    between atoms: _3  and  _4
REMARK    3  A    between atoms: _3  and  _6
REMARK    4  A    between atoms: _6  and  _7
REMARK    5  A    between atoms: _10  and  _12
REMARK    6  A    between atoms: _12  and  _13
REMARK    7  A    between atoms: _12  and  _15
REMARK    8  A    between atoms: _18  and  _20
REMARK    9  A    between atoms: _20  and  _21
REMARK   10  A    between atoms: _20  and  _23
REMARK   11  A    between atoms: _23  and  _24
REMARK   12  A    between atoms: _27  and  _29
REMARK   13  A    between atoms: _29  and  _30
REMARK   14  A    between atoms: _29  and  _32
REMARK   15  A    between atoms: _32  and  _33
REMARK   16  A    between atoms: _33  and  _34
REMARK   17  A    between atoms: _34  and  _35
REMARK   18  A    between atoms: _35  and  _36
REMARK   19  A    between atoms: _40  and  _42
REMARK   20  A    between atoms: _42  and  _43
REMARK   21  A    between atoms: _45  and  _47
REMARK   22  A    between atoms: _47  and  _48
REMARK   23  A    between atoms: _51  and  _53
REMARK   24  A    between atoms: _53  and  _54
REMARK   25  A    between atoms: _53  and  _56
REMARK   26  A    between atoms: _59  and  _61
REMARK   27  A    between atoms: _61  and  _62
REMARK   28  A    between atoms: _61  and  _64
REMARK   29  A    between atoms: _64  and  _65
REMARK   30  A    between atoms: _65  and  _66
REMARK   31  A    between atoms: _68  and  _70
REMARK   32  A    between atoms: _70  and  _71
REMARK   33  A    between atoms: _74  and  _76
REMARK   34  A    between atoms: _76  and  _77
REMARK   35  A    between atoms: _76  and  _79
REMARK   36  A    between atoms: _82  and  _84
REMARK   37  A    between atoms: _84  and  _85
REMARK   38  A    between atoms: _84  and  _87
REMARK   39  A    between atoms: _87  and  _88
REMARK   40  A    between atoms: _90  and  _92
REMARK   41  A    between atoms: _92  and  _93
REMARK   42  A    between atoms: _92  and  _95
REMARK   43  A    between atoms: _95  and  _96
REMARK   44  A    between atoms: _98  and  _100
REMARK   45  A    between atoms: _100  and  _101
REMARK   46  A    between atoms: _100  and  _103
REMARK   47  A    between atoms: _103  and  _104
REMARK   48  A    between atoms: _109  and  _110
REMARK   49  A    between atoms: _112  and  _114
REMARK   50  A    between atoms: _114  and  _115
REMARK   51  A    between atoms: _117  and  _119
REMARK   52  A    between atoms: _119  and  _120
REMARK   53  A    between atoms: _119  and  _122
REMARK   54  A    between atoms: _125  and  _127
REMARK   55  A    between atoms: _127  and  _128
REMARK   56  A    between atoms: _127  and  _130
REMARK   57  A    between atoms: _130  and  _131
REMARK   58  A    between atoms: _131  and  _132
REMARK   59  A    between atoms: _132  and  _133
REMARK   60  A    between atoms: _142  and  _144
REMARK   61  A    between atoms: _144  and  _145
REMARK   62  A    between atoms: _144  and  _147
REMARK   63  A    between atoms: _147  and  _148
REMARK   64  A    between atoms: _151  and  _153
REMARK   65  A    between atoms: _153  and  _154
REMARK   66  A    between atoms: _153  and  _156
REMARK   67  A    between atoms: _156  and  _157
REMARK   68  A    between atoms: _157  and  _158
REMARK   69  A    between atoms: _161  and  _163
REMARK   70  A    between atoms: _163  and  _164
REMARK   71  A    between atoms: _163  and  _166
REMARK   72  A    between atoms: _166  and  _167
REMARK   73  A    between atoms: _170  and  _172
REMARK   74  A    between atoms: _172  and  _173
REMARK   75  A    between atoms: _172  and  _175
REMARK   76  A    between atoms: _178  and  _180
REMARK   77  A    between atoms: _180  and  _181
REMARK   78  A    between atoms: _180  and  _183
REMARK   79  A    between atoms: _186  and  _188
REMARK   80  A    between atoms: _188  and  _189
REMARK   81  A    between atoms: _188  and  _191
REMARK   82  A    between atoms: _191  and  _192
REMARK   83  A    between atoms: _195  and  _197
REMARK   84  A    between atoms: _197  and  _198
REMARK   85  A    between atoms: _197  and  _200
REMARK   86  A    between atoms: _200  and  _201
REMARK   87  A    between atoms: _203  and  _205
REMARK   88  A    between atoms: _205  and  _206
REMARK   89  A    between atoms: _208  and  _210
REMARK   90  A    between atoms: _210  and  _211
REMARK   91  A    between atoms: _210  and  _213
REMARK   92  A    between atoms: _213  and  _214
REMARK   93  A    between atoms: _217  and  _219
REMARK   94  A    between atoms: _219  and  _220
REMARK   95  A    between atoms: _219  and  _222
REMARK   96  A    between atoms: _222  and  _223
REMARK   97  A    between atoms: _226  and  _228
REMARK   98  A    between atoms: _228  and  _229
REMARK   99  A    between atoms: _228  and  _231
REMARK  100  A    between atoms: _231  and  _232
REMARK  101  A    between atoms: _235  and  _237
REMARK  102  A    between atoms: _237  and  _238
REMARK  103  A    between atoms: _237  and  _240
REMARK  104  A    between atoms: _240  and  _241
REMARK  105  A    between atoms: _243  and  _245
REMARK  106  A    between atoms: _245  and  _246
REMARK  107  A    between atoms: _245  and  _248
REMARK  108  A    between atoms: _248  and  _249
REMARK  109  A    between atoms: _259  and  _261
REMARK  110  A    between atoms: _261  and  _262
REMARK  111  A    between atoms: _261  and  _264
REMARK  112  A    between atoms: _264  and  _265
REMARK  113  A    between atoms: _268  and  _270
REMARK  114  A    between atoms: _270  and  _271
REMARK  115  A    between atoms: _270  and  _273
REMARK  116  A    between atoms: _273  and  _274
REMARK  117  A    between atoms: _277  and  _279
REMARK  118  A    between atoms: _279  and  _280
REMARK  119  A    between atoms: _279  and  _282
REMARK  120  A    between atoms: _282  and  _283
REMARK  121  A    between atoms: _283  and  _284
REMARK  122  A    between atoms: _284  and  _285
REMARK  123  A    between atoms: _285  and  _286
REMARK  124  A    between atoms: _290  and  _292
REMARK  125  A    between atoms: _292  and  _293
REMARK  126  A    between atoms: _292  and  _295
REMARK  127  A    between atoms: _295  and  _296
REMARK  128  A    between atoms: _299  and  _301
REMARK  129  A    between atoms: _301  and  _302
REMARK  130  A    between atoms: _305  and  _307
REMARK  131  A    between atoms: _307  and  _308
REMARK  132  A    between atoms: _311  and  _313
REMARK  133  A    between atoms: _313  and  _314
REMARK  134  A    between atoms: _313  and  _316
REMARK  135  A    between atoms: _316  and  _317
REMARK  136  A    between atoms: _321  and  _322
REMARK  137  A    between atoms: _327  and  _329
REMARK  138  A    between atoms: _329  and  _330
REMARK  139  A    between atoms: _329  and  _332
REMARK  140  A    between atoms: _332  and  _333
REMARK  141  A    between atoms: _338  and  _340
REMARK  142  A    between atoms: _340  and  _341
REMARK  143  A    between atoms: _340  and  _343
REMARK  144  A    between atoms: _343  and  _344
REMARK  145  A    between atoms: _347  and  _349
REMARK  146  A    between atoms: _349  and  _350
REMARK  147  A    between atoms: _349  and  _352
REMARK  148  A    between atoms: _352  and  _353
REMARK  149  A    between atoms: _359  and  _361
REMARK  150  A    between atoms: _361  and  _362
REMARK  151  A    between atoms: _361  and  _364
REMARK  152  A    between atoms: _367  and  _369
REMARK  153  A    between atoms: _369  and  _370
REMARK  154  A    between atoms: _369  and  _372
REMARK  155  A    between atoms: _375  and  _377
REMARK  156  A    between atoms: _377  and  _378
REMARK  157  A    between atoms: _380  and  _382
REMARK  158  A    between atoms: _382  and  _383
REMARK  159  A    between atoms: _385  and  _387
REMARK  160  A    between atoms: _387  and  _388
REMARK  161  A    between atoms: _387  and  _390
REMARK  162  A    between atoms: _390  and  _391
REMARK  163  A    between atoms: _394  and  _396
REMARK  164  A    between atoms: _396  and  _397
REMARK  165  A    between atoms: _396  and  _399
REMARK  166  A    between atoms: _399  and  _400
REMARK  167  A    between atoms: _400  and  _402
REMARK  168  A    between atoms: _402  and  MG_565
REMARK  169  A    between atoms: _403  and  _405
REMARK  170  A    between atoms: _405  and  _406
REMARK  171  A    between atoms: _405  and  _408
REMARK  172  A    between atoms: _408  and  _409
REMARK  173  A    between atoms: _414  and  _415
REMARK  174  A    between atoms: _417  and  _419
REMARK  175  A    between atoms: _419  and  _420
REMARK  176  A    between atoms: _419  and  _422
REMARK  177  A    between atoms: _422  and  _423
REMARK  178  A    between atoms: _426  and  _428
REMARK  179  A    between atoms: _428  and  _429
REMARK  180  A    between atoms: _428  and  _431
REMARK  181  A    between atoms: _431  and  _432
REMARK  182  A    between atoms: _432  and  _433
REMARK  183  A    between atoms: _436  and  _438
REMARK  184  A    between atoms: _438  and  _439
REMARK  185  A    between atoms: _438  and  _441
REMARK  186  A    between atoms: _441  and  _442
REMARK  187  A    between atoms: _442  and  _443
REMARK  188  A    between atoms: _443  and  _444
REMARK  189  A    between atoms: _453  and  _455
REMARK  190  A    between atoms: _455  and  _456
REMARK  191  A    between atoms: _455  and  _458
REMARK  192  A    between atoms: _458  and  _459
REMARK  193  A    between atoms: _464  and  _465
REMARK  194  A    between atoms: _467  and  _469
REMARK  195  A    between atoms: _469  and  _470
REMARK  196  A    between atoms: _469  and  _472
REMARK  197  A    between atoms: _472  and  _473
REMARK  198  A    between atoms: _473  and  _474
REMARK  199  A    between atoms: _474  and  _475
REMARK  200  A    between atoms: _484  and  _486
REMARK  201  A    between atoms: _486  and  _487
REMARK  202  A    between atoms: _486  and  _489
REMARK  203  A    between atoms: _489  and  _490
REMARK  204  A    between atoms: _493  and  _495
REMARK  205  A    between atoms: _495  and  _496
REMARK  206  A    between atoms: _498  and  _500
REMARK  207  A    between atoms: _500  and  _501
REMARK  208  A    between atoms: _500  and  _503
REMARK  209  A    between atoms: _503  and  _504
REMARK  210  A    between atoms: _507  and  _509
REMARK  211  A    between atoms: _509  and  _510
REMARK  212  A    between atoms: _509  and  _512
REMARK  213  A    between atoms: _512  and  _513
REMARK  214  A    between atoms: _518  and  _519
REMARK  215  A    between atoms: _521  and  _523
REMARK  216  A    between atoms: _523  and  _524
REMARK  217  A    between atoms: _523  and  _526
REMARK  218  A    between atoms: _526  and  _527
REMARK  219  A    between atoms: _533  and  _535
REMARK  220  A    between atoms: _535  and  _536
REMARK  221  A    between atoms: _535  and  _538
REMARK  222  A    between atoms: _538  and  _539
REMARK  223  A    between atoms: _545  and  _547
REMARK  224  A    between atoms: _547  and  _548
REMARK  225  A    between atoms: _547  and  _550
REMARK  226  A    between atoms: _550  and  _551
REMARK  227  A    between atoms: _554  and  _556
REMARK  228  A    between atoms: _556  and  _557
REMARK  229  A    between atoms: _556  and  _559
REMARK  230  A    between atoms: _559  and  _560
REMARK                            x       y       z     vdW  Elec       q    Type
REMARK                         _______ _______ _______ _____ _____    ______ ____
ROOT
ATOM      1  CA  ILE A   1      -9.983   9.581 136.669  0.00  0.00    +0.145 C 
ENDROOT
BRANCH   1   2
ATOM      2  C   ILE A   1      -9.297  10.415 137.743  0.00  0.00    +0.238 C 
ATOM      3  O   ILE A   1      -9.958  11.047 138.567  0.00  0.00    -0.274 OA
ATOM      4  N   GLY A   2      -7.968  10.409 137.743  0.00  0.00    -0.297 N 
ATOM      5  H   GLY A   2      -7.457   9.882 137.006  0.00  0.00    +0.150 HD
BRANCH   4   6
ATOM      6  CA  GLY A   2      -7.221  11.127 138.757  0.00  0.00    +0.163 C 
BRANCH   6   7
ATOM      7  C   GLY A   2      -5.958  11.797 138.258  0.00  0.00    +0.229 C 
ATOM      8  O   GLY A   2      -5.540  11.594 137.119  0.00  0.00    -0.286 OA
ENDBRANCH   6   7
ENDBRANCH   4   6
ENDBRANCH   1   2
BRANCH   1   9
ATOM      9  N   ILE A   1     -10.951   8.681 137.280  0.00  0.00    -0.238 NA
ATOM     10  H   ILE A   1     -11.780   9.081 137.764  0.00  0.00    +0.142 HD
ENDBRANCH   1   9
BRANCH   1  11
ATOM     11  CB  ILE A   1     -10.649  10.505 135.631  0.00  0.00    +0.025 C 
ATOM     12  CG2 ILE A   1      -9.648  11.517 135.094  0.00  0.00    +0.002 C 
BRANCH  11  13
ATOM     13  CG1 ILE A   1     -11.242   9.675 134.489  0.00  0.00    +0.002 C 
ATOM     14  CD1 ILE A   1     -11.953  10.501 133.433  0.00  0.00    +0.000 C 
ENDBRANCH  11  13
ENDBRANCH   1  11
TORSDOF 6
REMARK  Name = ../refined-set-2016/4rhx/4rhx_pocket.pdb
REMARK  230 active torsions:
REMARK  status: ('A' for Active; 'I' for Inactive)
REMARK    1  A    between atoms: _1  and  _3
REMARK    2  A    between atoms: _3  and  _4
REMARK    3  A    between atoms: _3  and  _6
REMARK    4  A    between atoms: _6  and  _7
REMARK    5  A    between atoms: _10  and  _12
REMARK    6  A    between atoms: _12  and  _13
REMARK    7  A    between atoms: _12  and  _15
REMARK    8  A    between atoms: _18  and  _20
REMARK    9  A    between atoms: _20  and  _21
REMARK   10  A    between atoms: _20  and  _23
REMARK   11  A    between atoms: _23  and  _24
REMARK   12  A    between atoms: _27  and  _29
REMARK   13  A    between atoms: _29  and  _30
REMARK   14  A    between atoms: _29  and  _32
REMARK   15  A    between atoms: _32  and  _33
REMARK   16  A    between atoms: _33  and  _34
REMARK   17  A    between atoms: _34  and  _35
REMARK   18  A    between atoms: _35  and  _36
REMARK   19  A    between atoms: _40  and  _42
REMARK   20  A    between atoms: _42  and  _43
REMARK   21  A    between atoms: _45  and  _47
REMARK   22  A    between atoms: _47  and  _48
REMARK   23  A    between atoms: _51  and  _53
REMARK   24  A    between atoms: _53  and  _54
REMARK   25  A    between atoms: _53  and  _56
REMARK   26  A    between atoms: _59  and  _61
REMARK   27  A    between atoms: _61  and  _62
REMARK   28  A    between atoms: _61  and  _64
REMARK   29  A    between atoms: _64  and  _65
REMARK   30  A    between atoms: _65  and  _66
REMARK   31  A    between atoms: _68  and  _70
REMARK   32  A    between atoms: _70  and  _71
REMARK   33  A    between atoms: _74  and  _76
REMARK   34  A    between atoms: _76  and  _77
REMARK   35  A    between atoms: _76  and  _79
REMARK   36  A    between atoms: _82  and  _84
REMARK   37  A    between atoms: _84  and  _85
REMARK   38  A    between atoms: _84  and  _87
REMARK   39  A    between atoms: _87  and  _88
REMARK   40  A    between atoms: _90  and  _92
REMARK   41  A    between atoms: _92  and  _93
REMARK   42  A    between atoms: _92  and  _95
REMARK   43  A    between atoms: _95  and  _96
REMARK   44  A    between atoms: _98  and  _100
REMARK   45  A    between atoms: _100  and  _101
REMARK   46  A    between atoms: _100  and  _103
REMARK   47  A    between atoms: _103  and  _104
REMARK   48  A    between atoms: _109  and  _110
REMARK   49  A    between atoms: _112  and  _114
REMARK   50  A    between atoms: _114  and  _115
REMARK   51  A    between atoms: _117  and  _119
REMARK   52  A    between atoms: _119  and  _120
REMARK   53  A    between atoms: _119  and  _122
REMARK   54  A    between atoms: _125  and  _127
REMARK   55  A    between atoms: _127  and  _128
REMARK   56  A    between atoms: _127  and  _130
REMARK   57  A    between atoms: _130  and  _131
REMARK   58  A    between atoms: _131  and  _132
REMARK   59  A    between atoms: _132  and  _133
REMARK   60  A    between atoms: _142  and  _144
REMARK   61  A    between atoms: _144  and  _145
REMARK   62  A    between atoms: _144  and  _147
REMARK   63  A    between atoms: _147  and  _148
REMARK   64  A    between atoms: _151  and  _153
REMARK   65  A    between atoms: _153  and  _154
REMARK   66  A    between atoms: _153  and  _156
REMARK   67  A    between atoms: _156  and  _157
REMARK   68  A    between atoms: _157  and  _158
REMARK   69  A    between atoms: _161  and  _163
REMARK   70  A    between atoms: _163  and  _164
REMARK   71  A    between atoms: _163  and  _166
REMARK   72  A    between atoms: _166  and  _167
REMARK   73  A    between atoms: _170  and  _172
REMARK   74  A    between atoms: _172  and  _173
REMARK   75  A    between atoms: _172  and  _175
REMARK   76  A    between atoms: _178  and  _180
REMARK   77  A    between atoms: _180  and  _181
REMARK   78  A    between atoms: _180  and  _183
REMARK   79  A    between atoms: _186  and  _188
REMARK   80  A    between atoms: _188  and  _189
REMARK   81  A    between atoms: _188  and  _191
REMARK   82  A    between atoms: _191  and  _192
REMARK   83  A    between atoms: _195  and  _197
REMARK   84  A    between atoms: _197  and  _198
REMARK   85  A    between atoms: _197  and  _200
REMARK   86  A    between atoms: _200  and  _201
REMARK   87  A    between atoms: _203  and  _205
REMARK   88  A    between atoms: _205  and  _206
REMARK   89  A    between atoms: _208  and  _210
REMARK   90  A    between atoms: _210  and  _211
REMARK   91  A    between atoms: _210  and  _213
REMARK   92  A    between atoms: _213  and  _214
REMARK   93  A    between atoms: _217  and  _219
REMARK   94  A    between atoms: _219  and  _220
REMARK   95  A    between atoms: _219  and  _222
REMARK   96  A    between atoms: _222  and  _223
REMARK   97  A    between atoms: _226  and  _228
REMARK   98  A    between atoms: _228  and  _229
REMARK   99  A    between atoms: _228  and  _231
REMARK  100  A    between atoms: _231  and  _232
REMARK  101  A    between atoms: _235  and  _237
REMARK  102  A    between atoms: _237  and  _238
REMARK  103  A    between atoms: _237  and  _240
REMARK  104  A    between atoms: _240  and  _241
REMARK  105  A    between atoms: _243  and  _245
REMARK  106  A    between atoms: _245  and  _246
REMARK  107  A    between atoms: _245  and  _248
REMARK  108  A    between atoms: _248  and  _249
REMARK  109  A    between atoms: _259  and  _261
REMARK  110  A    between atoms: _261  and  _262
REMARK  111  A    between atoms: _261  and  _264
REMARK  112  A    between atoms: _264  and  _265
REMARK  113  A    between atoms: _268  and  _270
REMARK  114  A    between atoms: _270  and  _271
REMARK  115  A    between atoms: _270  and  _273
REMARK  116  A    between atoms: _273  and  _274
REMARK  117  A    between atoms: _277  and  _279
REMARK  118  A    between atoms: _279  and  _280
REMARK  119  A    between atoms: _279  and  _282
REMARK  120  A    between atoms: _282  and  _283
REMARK  121  A    between atoms: _283  and  _284
REMARK  122  A    between atoms: _284  and  _285
REMARK  123  A    between atoms: _285  and  _286
REMARK  124  A    between atoms: _290  and  _292
REMARK  125  A    between atoms: _292  and  _293
REMARK  126  A    between atoms: _292  and  _295
REMARK  127  A    between atoms: _295  and  _296
REMARK  128  A    between atoms: _299  and  _301
REMARK  129  A    between atoms: _301  and  _302
REMARK  130  A    between atoms: _305  and  _307
REMARK  131  A    between atoms: _307  and  _308
REMARK  132  A    between atoms: _311  and  _313
REMARK  133  A    between atoms: _313  and  _314
REMARK  134  A    between atoms: _313  and  _316
REMARK  135  A    between atoms: _316  and  _317
REMARK  136  A    between atoms: _321  and  _322
REMARK  137  A    between atoms: _327  and  _329
REMARK  138  A    between atoms: _329  and  _330
REMARK  139  A    between atoms: _329  and  _332
REMARK  140  A    between atoms: _332  and  _333
REMARK  141  A    between atoms: _338  and  _340
REMARK  142  A    between atoms: _340  and  _341
REMARK  143  A    between atoms: _340  and  _343
REMARK  144  A    between atoms: _343  and  _344
REMARK  145  A    between atoms: _347  and  _349
REMARK  146  A    between atoms: _349  and  _350
REMARK  147  A    between atoms: _349  and  _352
REMARK  148  A    between atoms: _352  and  _353
REMARK  149  A    between atoms: _359  and  _361
REMARK  150  A    between atoms: _361  and  _362
REMARK  151  A    between atoms: _361  and  _364
REMARK  152  A    between atoms: _367  and  _369
REMARK  153  A    between atoms: _369  and  _370
REMARK  154  A    between atoms: _369  and  _372
REMARK  155  A    between atoms: _375  and  _377
REMARK  156  A    between atoms: _377  and  _378
REMARK  157  A    between atoms: _380  and  _382
REMARK  158  A    between atoms: _382  and  _383
REMARK  159  A    between atoms: _385  and  _387
REMARK  160  A    between atoms: _387  and  _388
REMARK  161  A    between atoms: _387  and  _390
REMARK  162  A    between atoms: _390  and  _391
REMARK  163  A    between atoms: _394  and  _396
REMARK  164  A    between atoms: _396  and  _397
REMARK  165  A    between atoms: _396  and  _399
REMARK  166  A    between atoms: _399  and  _400
REMARK  167  A    between atoms: _400  and  _402
REMARK  168  A    between atoms: _402  and  MG_565
REMARK  169  A    between atoms: _403  and  _405
REMARK  170  A    between atoms: _405  and  _406
REMARK  171  A    between atoms: _405  and  _408
REMARK  172  A    between atoms: _408  and  _409
REMARK  173  A    between atoms: _414  and  _415
REMARK  174  A    between atoms: _417  and  _419
REMARK  175  A    between atoms: _419  and  _420
REMARK  176  A    between atoms: _419  and  _422
REMARK  177  A    between atoms: _422  and  _423
REMARK  178  A    between atoms: _426  and  _428
REMARK  179  A    between atoms: _428  and  _429
REMARK  180  A    between atoms: _428  and  _431
REMARK  181  A    between atoms: _431  and  _432
REMARK  182  A    between atoms: _432  and  _433
REMARK  183  A    between atoms: _436  and  _438
REMARK  184  A    between atoms: _438  and  _439
REMARK  185  A    between atoms: _438  and  _441
REMARK  186  A    between atoms: _441  and  _442
REMARK  187  A    between atoms: _442  and  _443
REMARK  188  A    between atoms: _443  and  _444
REMARK  189  A    between atoms: _453  and  _455
REMARK  190  A    between atoms: _455  and  _456
REMARK  191  A    between atoms: _455  and  _458
REMARK  192  A    between atoms: _458  and  _459
REMARK  193  A    between atoms: _464  and  _465
REMARK  194  A    between atoms: _467  and  _469
REMARK  195  A    between atoms: _469  and  _470
REMARK  196  A    between atoms: _469  and  _472
REMARK  197  A    between atoms: _472  and  _473
REMARK  198  A    between atoms: _473  and  _474
REMARK  199  A    between atoms: _474  and  _475
REMARK  200  A    between atoms: _484  and  _486
REMARK  201  A    between atoms: _486  and  _487
REMARK  202  A    between atoms: _486  and  _489
REMARK  203  A    between atoms: _489  and  _490
REMARK  204  A    between atoms: _493  and  _495
REMARK  205  A    between atoms: _495  and  _496
REMARK  206  A    between atoms: _498  and  _500
REMARK  207  A    between atoms: _500  and  _501
REMARK  208  A    between atoms: _500  and  _503
REMARK  209  A    between atoms: _503  and  _504
REMARK  210  A    between atoms: _507  and  _509
REMARK  211  A    between atoms: _509  and  _510
REMARK  212  A    between atoms: _509  and  _512
REMARK  213  A    between atoms: _512  and  _513
REMARK  214  A    between atoms: _518  and  _519
REMARK  215  A    between atoms: _521  and  _523
REMARK  216  A    between atoms: _523  and  _524
REMARK  217  A    between atoms: _523  and  _526
REMARK  218  A    between atoms: _526  and  _527
REMARK  219  A    between atoms: _533  and  _535
REMARK  220  A    between atoms: _535  and  _536
REMARK  221  A    between atoms: _535  and  _538
REMARK  222  A    between atoms: _538  and  _539
REMARK  223  A    between atoms: _545  and  _547
REMARK  224  A    between atoms: _547  and  _548
REMARK  225  A    between atoms: _547  and  _550
REMARK  226  A    between atoms: _550  and  _551
REMARK  227  A    between atoms: _554  and  _556
REMARK  228  A    between atoms: _556  and  _557
REMARK  229  A    between atoms: _556  and  _559
REMARK  230  A    between atoms: _559  and  _560
REMARK                            x       y       z     vdW  Elec       q    Type
REMARK                         _______ _______ _______ _____ _____    ______ ____
ROOT
ATOM      1  CA  LEU A   1      -0.565  11.901 138.998  0.00  0.00    +0.133 C 
ENDROOT
BRANCH   1   2
ATOM      2  N   LEU A   1      -1.739  12.726 138.740  0.00  0.00    -0.239 NA
ATOM      3  H   LEU A   1      -1.656  13.536 138.092  0.00  0.00    +0.142 HD
ENDBRANCH   1   2
BRANCH   1   4
ATOM      4  C   LEU A   1       0.419  12.552 139.969  0.00  0.00    +0.224 C 
ATOM      5  O   LEU A   1       0.622  13.766 139.945  0.00  0.00    -0.287 OA
ENDBRANCH   1   4
BRANCH   1   6
ATOM      6  CB  LEU A   1       0.141  11.586 137.676  0.00  0.00    +0.025 C 
BRANCH   6   7
ATOM      7  CG  LEU A   1       0.599  10.148 137.429  0.00  0.00    +0.002 C 
ATOM      8  CD2 LEU A   1      -0.514   9.163 137.738  0.00  0.00    +0.000 C 
ATOM      9  CD1 LEU A   1       1.061   9.991 135.991  0.00  0.00    +0.000 C 
ENDBRANCH   6   7
ENDBRANCH   1   6
TORSDOF 4
REMARK  Name = ../refined-set-2016/4rhx/4rhx_pocket.pdb
REMARK  230 active torsions:
REMARK  status: ('A' for Active; 'I' for Inactive)
REMARK    1  A    between atoms: _1  and  _3
REMARK    2  A    between atoms: _3  and  _4
REMARK    3  A    between atoms: _3  and  _6
REMARK    4  A    between atoms: _6  and  _7
REMARK    5  A    between atoms: _10  and  _12
REMARK    6  A    between atoms: _12  and  _13
REMARK    7  A    between atoms: _12  and  _15
REMARK    8  A    between atoms: _18  and  _20
REMARK    9  A    between atoms: _20  and  _21
REMARK   10  A    between atoms: _20  and  _23
REMARK   11  A    between atoms: _23  and  _24
REMARK   12  A    between atoms: _27  and  _29
REMARK   13  A    between atoms: _29  and  _30
REMARK   14  A    between atoms: _29  and  _32
REMARK   15  A    between atoms: _32  and  _33
REMARK   16  A    between atoms: _33  and  _34
REMARK   17  A    between atoms: _34  and  _35
REMARK   18  A    between atoms: _35  and  _36
REMARK   19  A    between atoms: _40  and  _42
REMARK   20  A    between atoms: _42  and  _43
REMARK   21  A    between atoms: _45  and  _47
REMARK   22  A    between atoms: _47  and  _48
REMARK   23  A    between atoms: _51  and  _53
REMARK   24  A    between atoms: _53  and  _54
REMARK   25  A    between atoms: _53  and  _56
REMARK   26  A    between atoms: _59  and  _61
REMARK   27  A    between atoms: _61  and  _62
REMARK   28  A    between atoms: _61  and  _64
REMARK   29  A    between atoms: _64  and  _65
REMARK   30  A    between atoms: _65  and  _66
REMARK   31  A    between atoms: _68  and  _70
REMARK   32  A    between atoms: _70  and  _71
REMARK   33  A    between atoms: _74  and  _76
REMARK   34  A    between atoms: _76  and  _77
REMARK   35  A    between atoms: _76  and  _79
REMARK   36  A    between atoms: _82  and  _84
REMARK   37  A    between atoms: _84  and  _85
REMARK   38  A    between atoms: _84  and  _87
REMARK   39  A    between atoms: _87  and  _88
REMARK   40  A    between atoms: _90  and  _92
REMARK   41  A    between atoms: _92  and  _93
REMARK   42  A    between atoms: _92  and  _95
REMARK   43  A    between atoms: _95  and  _96
REMARK   44  A    between atoms: _98  and  _100
REMARK   45  A    between atoms: _100  and  _101
REMARK   46  A    between atoms: _100  and  _103
REMARK   47  A    between atoms: _103  and  _104
REMARK   48  A    between atoms: _109  and  _110
REMARK   49  A    between atoms: _112  and  _114
REMARK   50  A    between atoms: _114  and  _115
REMARK   51  A    between atoms: _117  and  _119
REMARK   52  A    between atoms: _119  and  _120
REMARK   53  A    between atoms: _119  and  _122
REMARK   54  A    between atoms: _125  and  _127
REMARK   55  A    between atoms: _127  and  _128
REMARK   56  A    between atoms: _127  and  _130
REMARK   57  A    between atoms: _130  and  _131
REMARK   58  A    between atoms: _131  and  _132
REMARK   59  A    between atoms: _132  and  _133
REMARK   60  A    between atoms: _142  and  _144
REMARK   61  A    between atoms: _144  and  _145
REMARK   62  A    between atoms: _144  and  _147
REMARK   63  A    between atoms: _147  and  _148
REMARK   64  A    between atoms: _151  and  _153
REMARK   65  A    between atoms: _153  and  _154
REMARK   66  A    between atoms: _153  and  _156
REMARK   67  A    between atoms: _156  and  _157
REMARK   68  A    between atoms: _157  and  _158
REMARK   69  A    between atoms: _161  and  _163
REMARK   70  A    between atoms: _163  and  _164
REMARK   71  A    between atoms: _163  and  _166
REMARK   72  A    between atoms: _166  and  _167
REMARK   73  A    between atoms: _170  and  _172
REMARK   74  A    between atoms: _172  and  _173
REMARK   75  A    between atoms: _172  and  _175
REMARK   76  A    between atoms: _178  and  _180
REMARK   77  A    between atoms: _180  and  _181
REMARK   78  A    between atoms: _180  and  _183
REMARK   79  A    between atoms: _186  and  _188
REMARK   80  A    between atoms: _188  and  _189
REMARK   81  A    between atoms: _188  and  _191
REMARK   82  A    between atoms: _191  and  _192
REMARK   83  A    between atoms: _195  and  _197
REMARK   84  A    between atoms: _197  and  _198
REMARK   85  A    between atoms: _197  and  _200
REMARK   86  A    between atoms: _200  and  _201
REMARK   87  A    between atoms: _203  and  _205
REMARK   88  A    between atoms: _205  and  _206
REMARK   89  A    between atoms: _208  and  _210
REMARK   90  A    between atoms: _210  and  _211
REMARK   91  A    between atoms: _210  and  _213
REMARK   92  A    between atoms: _213  and  _214
REMARK   93  A    between atoms: _217  and  _219
REMARK   94  A    between atoms: _219  and  _220
REMARK   95  A    between atoms: _219  and  _222
REMARK   96  A    between atoms: _222  and  _223
REMARK   97  A    between atoms: _226  and  _228
REMARK   98  A    between atoms: _228  and  _229
REMARK   99  A    between atoms: _228  and  _231
REMARK  100  A    between atoms: _231  and  _232
REMARK  101  A    between atoms: _235  and  _237
REMARK  102  A    between atoms: _237  and  _238
REMARK  103  A    between atoms: _237  and  _240
REMARK  104  A    between atoms: _240  and  _241
REMARK  105  A    between atoms: _243  and  _245
REMARK  106  A    between atoms: _245  and  _246
REMARK  107  A    between atoms: _245  and  _248
REMARK  108  A    between atoms: _248  and  _249
REMARK  109  A    between atoms: _259  and  _261
REMARK  110  A    between atoms: _261  and  _262
REMARK  111  A    between atoms: _261  and  _264
REMARK  112  A    between atoms: _264  and  _265
REMARK  113  A    between atoms: _268  and  _270
REMARK  114  A    between atoms: _270  and  _271
REMARK  115  A    between atoms: _270  and  _273
REMARK  116  A    between atoms: _273  and  _274
REMARK  117  A    between atoms: _277  and  _279
REMARK  118  A    between atoms: _279  and  _280
REMARK  119  A    between atoms: _279  and  _282
REMARK  120  A    between atoms: _282  and  _283
REMARK  121  A    between atoms: _283  and  _284
REMARK  122  A    between atoms: _284  and  _285
REMARK  123  A    between atoms: _285  and  _286
REMARK  124  A    between atoms: _290  and  _292
REMARK  125  A    between atoms: _292  and  _293
REMARK  126  A    between atoms: _292  and  _295
REMARK  127  A    between atoms: _295  and  _296
REMARK  128  A    between atoms: _299  and  _301
REMARK  129  A    between atoms: _301  and  _302
REMARK  130  A    between atoms: _305  and  _307
REMARK  131  A    between atoms: _307  and  _308
REMARK  132  A    between atoms: _311  and  _313
REMARK  133  A    between atoms: _313  and  _314
REMARK  134  A    between atoms: _313  and  _316
REMARK  135  A    between atoms: _316  and  _317
REMARK  136  A    between atoms: _321  and  _322
REMARK  137  A    between atoms: _327  and  _329
REMARK  138  A    between atoms: _329  and  _330
REMARK  139  A    between atoms: _329  and  _332
REMARK  140  A    between atoms: _332  and  _333
REMARK  141  A    between atoms: _338  and  _340
REMARK  142  A    between atoms: _340  and  _341
REMARK  143  A    between atoms: _340  and  _343
REMARK  144  A    between atoms: _343  and  _344
REMARK  145  A    between atoms: _347  and  _349
REMARK  146  A    between atoms: _349  and  _350
REMARK  147  A    between atoms: _349  and  _352
REMARK  148  A    between atoms: _352  and  _353
REMARK  149  A    between atoms: _359  and  _361
REMARK  150  A    between atoms: _361  and  _362
REMARK  151  A    between atoms: _361  and  _364
REMARK  152  A    between atoms: _367  and  _369
REMARK  153  A    between atoms: _369  and  _370
REMARK  154  A    between atoms: _369  and  _372
REMARK  155  A    between atoms: _375  and  _377
REMARK  156  A    between atoms: _377  and  _378
REMARK  157  A    between atoms: _380  and  _382
REMARK  158  A    between atoms: _382  and  _383
REMARK  159  A    between atoms: _385  and  _387
REMARK  160  A    between atoms: _387  and  _388
REMARK  161  A    between atoms: _387  and  _390
REMARK  162  A    between atoms: _390  and  _391
REMARK  163  A    between atoms: _394  and  _396
REMARK  164  A    between atoms: _396  and  _397
REMARK  165  A    between atoms: _396  and  _399
REMARK  166  A    between atoms: _399  and  _400
REMARK  167  A    between atoms: _400  and  _402
REMARK  168  A    between atoms: _402  and  MG_565
REMARK  169  A    between atoms: _403  and  _405
REMARK  170  A    between atoms: _405  and  _406
REMARK  171  A    between atoms: _405  and  _408
REMARK  172  A    between atoms: _408  and  _409
REMARK  173  A    between atoms: _414  and  _415
REMARK  174  A    between atoms: _417  and  _419
REMARK  175  A    between atoms: _419  and  _420
REMARK  176  A    between atoms: _419  and  _422
REMARK  177  A    between atoms: _422  and  _423
REMARK  178  A    between atoms: _426  and  _428
REMARK  179  A    between atoms: _428  and  _429
REMARK  180  A    between atoms: _428  and  _431
REMARK  181  A    between atoms: _431  and  _432
REMARK  182  A    between atoms: _432  and  _433
REMARK  183  A    between atoms: _436  and  _438
REMARK  184  A    between atoms: _438  and  _439
REMARK  185  A    between atoms: _438  and  _441
REMARK  186  A    between atoms: _441  and  _442
REMARK  187  A    between atoms: _442  and  _443
REMARK  188  A    between atoms: _443  and  _444
REMARK  189  A    between atoms: _453  and  _455
REMARK  190  A    between atoms: _455  and  _456
REMARK  191  A    between atoms: _455  and  _458
REMARK  192  A    between atoms: _458  and  _459
REMARK  193  A    between atoms: _464  and  _465
REMARK  194  A    between atoms: _467  and  _469
REMARK  195  A    between atoms: _469  and  _470
REMARK  196  A    between atoms: _469  and  _472
REMARK  197  A    between atoms: _472  and  _473
REMARK  198  A    between atoms: _473  and  _474
REMARK  199  A    between atoms: _474  and  _475
REMARK  200  A    between atoms: _484  and  _486
REMARK  201  A    between atoms: _486  and  _487
REMARK  202  A    between atoms: _486  and  _489
REMARK  203  A    between atoms: _489  and  _490
REMARK  204  A    between atoms: _493  and  _495
REMARK  205  A    between atoms: _495  and  _496
REMARK  206  A    between atoms: _498  and  _500
REMARK  207  A    between atoms: _500  and  _501
REMARK  208  A    between atoms: _500  and  _503
REMARK  209  A    between atoms: _503  and  _504
REMARK  210  A    between atoms: _507  and  _509
REMARK  211  A    between atoms: _509  and  _510
REMARK  212  A    between atoms: _509  and  _512
REMARK  213  A    between atoms: _512  and  _513
REMARK  214  A    between atoms: _518  and  _519
REMARK  215  A    between atoms: _521  and  _523
REMARK  216  A    between atoms: _523  and  _524
REMARK  217  A    between atoms: _523  and  _526
REMARK  218  A    between atoms: _526  and  _527
REMARK  219  A    between atoms: _533  and  _535
REMARK  220  A    between atoms: _535  and  _536
REMARK  221  A    between atoms: _535  and  _538
REMARK  222  A    between atoms: _538  and  _539
REMARK  223  A    between atoms: _545  and  _547
REMARK  224  A    between atoms: _547  and  _548
REMARK  225  A    between atoms: _547  and  _550
REMARK  226  A    between atoms: _550  and  _551
REMARK  227  A    between atoms: _554  and  _556
REMARK  228  A    between atoms: _556  and  _557
REMARK  229  A    between atoms: _556  and  _559
REMARK  230  A    between atoms: _559  and  _560
REMARK                            x       y       z     vdW  Elec       q    Type
REMARK                         _______ _______ _______ _____ _____    ______ ____
ROOT
ATOM      1  CG  TYR A   1       3.868  14.132 134.260  0.00  0.00    -0.020 A 
ATOM      2  CD2 TYR A   1       3.062  15.125 134.798  0.00  0.00    -0.001 A 
ATOM      3  CE2 TYR A   1       2.897  16.332 134.163  0.00  0.00    +0.036 A 
ATOM      4  CZ  TYR A   1       3.537  16.565 132.968  0.00  0.00    +0.134 A 
ATOM      5  CE1 TYR A   1       4.343  15.596 132.404  0.00  0.00    +0.036 A 
ATOM      6  CD1 TYR A   1       4.502  14.383 133.050  0.00  0.00    -0.001 A 
ENDROOT
BRANCH   4   7
ATOM      7  OH  TYR A   1       3.362  17.778 132.345  0.00  0.00    -0.506 OA
ATOM      8  HH  TYR A   1       2.402  17.909 132.143  0.00  0.00    +0.292 HD
ENDBRANCH   4   7
BRANCH   1   9
ATOM      9  CB  TYR A   1       4.029  12.811 134.972  0.00  0.00    +0.051 C 
BRANCH   9  10
ATOM     10  CA  TYR A   1       5.425  12.538 135.531  0.00  0.00    +0.137 C 
BRANCH  10  11
ATOM     11  N   TYR A   1       5.324  11.630 136.665  0.00  0.00    -0.239 NA
ATOM     12  H   TYR A   1       4.579  11.789 137.373  0.00  0.00    +0.142 HD
ENDBRANCH  10  11
BRANCH  10  13
ATOM     13  C   TYR A   1       6.126  13.839 135.907  0.00  0.00    +0.224 C 
ATOM     14  O   TYR A   1       5.887  14.396 136.975  0.00  0.00    -0.287 OA
ENDBRANCH  10  13
ENDBRANCH   9  10
ENDBRANCH   1   9
TORSDOF 5
REMARK  Name = ../refined-set-2016/4rhx/4rhx_pocket.pdb
REMARK  230 active torsions:
REMARK  status: ('A' for Active; 'I' for Inactive)
REMARK    1  A    between atoms: _1  and  _3
REMARK    2  A    between atoms: _3  and  _4
REMARK    3  A    between atoms: _3  and  _6
REMARK    4  A    between atoms: _6  and  _7
REMARK    5  A    between atoms: _10  and  _12
REMARK    6  A    between atoms: _12  and  _13
REMARK    7  A    between atoms: _12  and  _15
REMARK    8  A    between atoms: _18  and  _20
REMARK    9  A    between atoms: _20  and  _21
REMARK   10  A    between atoms: _20  and  _23
REMARK   11  A    between atoms: _23  and  _24
REMARK   12  A    between atoms: _27  and  _29
REMARK   13  A    between atoms: _29  and  _30
REMARK   14  A    between atoms: _29  and  _32
REMARK   15  A    between atoms: _32  and  _33
REMARK   16  A    between atoms: _33  and  _34
REMARK   17  A    between atoms: _34  and  _35
REMARK   18  A    between atoms: _35  and  _36
REMARK   19  A    between atoms: _40  and  _42
REMARK   20  A    between atoms: _42  and  _43
REMARK   21  A    between atoms: _45  and  _47
REMARK   22  A    between atoms: _47  and  _48
REMARK   23  A    between atoms: _51  and  _53
REMARK   24  A    between atoms: _53  and  _54
REMARK   25  A    between atoms: _53  and  _56
REMARK   26  A    between atoms: _59  and  _61
REMARK   27  A    between atoms: _61  and  _62
REMARK   28  A    between atoms: _61  and  _64
REMARK   29  A    between atoms: _64  and  _65
REMARK   30  A    between atoms: _65  and  _66
REMARK   31  A    between atoms: _68  and  _70
REMARK   32  A    between atoms: _70  and  _71
REMARK   33  A    between atoms: _74  and  _76
REMARK   34  A    between atoms: _76  and  _77
REMARK   35  A    between atoms: _76  and  _79
REMARK   36  A    between atoms: _82  and  _84
REMARK   37  A    between atoms: _84  and  _85
REMARK   38  A    between atoms: _84  and  _87
REMARK   39  A    between atoms: _87  and  _88
REMARK   40  A    between atoms: _90  and  _92
REMARK   41  A    between atoms: _92  and  _93
REMARK   42  A    between atoms: _92  and  _95
REMARK   43  A    between atoms: _95  and  _96
REMARK   44  A    between atoms: _98  and  _100
REMARK   45  A    between atoms: _100  and  _101
REMARK   46  A    between atoms: _100  and  _103
REMARK   47  A    between atoms: _103  and  _104
REMARK   48  A    between atoms: _109  and  _110
REMARK   49  A    between atoms: _112  and  _114
REMARK   50  A    between atoms: _114  and  _115
REMARK   51  A    between atoms: _117  and  _119
REMARK   52  A    between atoms: _119  and  _120
REMARK   53  A    between atoms: _119  and  _122
REMARK   54  A    between atoms: _125  and  _127
REMARK   55  A    between atoms: _127  and  _128
REMARK   56  A    between atoms: _127  and  _130
REMARK   57  A    between atoms: _130  and  _131
REMARK   58  A    between atoms: _131  and  _132
REMARK   59  A    between atoms: _132  and  _133
REMARK   60  A    between atoms: _142  and  _144
REMARK   61  A    between atoms: _144  and  _145
REMARK   62  A    between atoms: _144  and  _147
REMARK   63  A    between atoms: _147  and  _148
REMARK   64  A    between atoms: _151  and  _153
REMARK   65  A    between atoms: _153  and  _154
REMARK   66  A    between atoms: _153  and  _156
REMARK   67  A    between atoms: _156  and  _157
REMARK   68  A    between atoms: _157  and  _158
REMARK   69  A    between atoms: _161  and  _163
REMARK   70  A    between atoms: _163  and  _164
REMARK   71  A    between atoms: _163  and  _166
REMARK   72  A    between atoms: _166  and  _167
REMARK   73  A    between atoms: _170  and  _172
REMARK   74  A    between atoms: _172  and  _173
REMARK   75  A    between atoms: _172  and  _175
REMARK   76  A    between atoms: _178  and  _180
REMARK   77  A    between atoms: _180  and  _181
REMARK   78  A    between atoms: _180  and  _183
REMARK   79  A    between atoms: _186  and  _188
REMARK   80  A    between atoms: _188  and  _189
REMARK   81  A    between atoms: _188  and  _191
REMARK   82  A    between atoms: _191  and  _192
REMARK   83  A    between atoms: _195  and  _197
REMARK   84  A    between atoms: _197  and  _198
REMARK   85  A    between atoms: _197  and  _200
REMARK   86  A    between atoms: _200  and  _201
REMARK   87  A    between atoms: _203  and  _205
REMARK   88  A    between atoms: _205  and  _206
REMARK   89  A    between atoms: _208  and  _210
REMARK   90  A    between atoms: _210  and  _211
REMARK   91  A    between atoms: _210  and  _213
REMARK   92  A    between atoms: _213  and  _214
REMARK   93  A    between atoms: _217  and  _219
REMARK   94  A    between atoms: _219  and  _220
REMARK   95  A    between atoms: _219  and  _222
REMARK   96  A    between atoms: _222  and  _223
REMARK   97  A    between atoms: _226  and  _228
REMARK   98  A    between atoms: _228  and  _229
REMARK   99  A    between atoms: _228  and  _231
REMARK  100  A    between atoms: _231  and  _232
REMARK  101  A    between atoms: _235  and  _237
REMARK  102  A    between atoms: _237  and  _238
REMARK  103  A    between atoms: _237  and  _240
REMARK  104  A    between atoms: _240  and  _241
REMARK  105  A    between atoms: _243  and  _245
REMARK  106  A    between atoms: _245  and  _246
REMARK  107  A    between atoms: _245  and  _248
REMARK  108  A    between atoms: _248  and  _249
REMARK  109  A    between atoms: _259  and  _261
REMARK  110  A    between atoms: _261  and  _262
REMARK  111  A    between atoms: _261  and  _264
REMARK  112  A    between atoms: _264  and  _265
REMARK  113  A    between atoms: _268  and  _270
REMARK  114  A    between atoms: _270  and  _271
REMARK  115  A    between atoms: _270  and  _273
REMARK  116  A    between atoms: _273  and  _274
REMARK  117  A    between atoms: _277  and  _279
REMARK  118  A    between atoms: _279  and  _280
REMARK  119  A    between atoms: _279  and  _282
REMARK  120  A    between atoms: _282  and  _283
REMARK  121  A    between atoms: _283  and  _284
REMARK  122  A    between atoms: _284  and  _285
REMARK  123  A    between atoms: _285  and  _286
REMARK  124  A    between atoms: _290  and  _292
REMARK  125  A    between atoms: _292  and  _293
REMARK  126  A    between atoms: _292  and  _295
REMARK  127  A    between atoms: _295  and  _296
REMARK  128  A    between atoms: _299  and  _301
REMARK  129  A    between atoms: _301  and  _302
REMARK  130  A    between atoms: _305  and  _307
REMARK  131  A    between atoms: _307  and  _308
REMARK  132  A    between atoms: _311  and  _313
REMARK  133  A    between atoms: _313  and  _314
REMARK  134  A    between atoms: _313  and  _316
REMARK  135  A    between atoms: _316  and  _317
REMARK  136  A    between atoms: _321  and  _322
REMARK  137  A    between atoms: _327  and  _329
REMARK  138  A    between atoms: _329  and  _330
REMARK  139  A    between atoms: _329  and  _332
REMARK  140  A    between atoms: _332  and  _333
REMARK  141  A    between atoms: _338  and  _340
REMARK  142  A    between atoms: _340  and  _341
REMARK  143  A    between atoms: _340  and  _343
REMARK  144  A    between atoms: _343  and  _344
REMARK  145  A    between atoms: _347  and  _349
REMARK  146  A    between atoms: _349  and  _350
REMARK  147  A    between atoms: _349  and  _352
REMARK  148  A    between atoms: _352  and  _353
REMARK  149  A    between atoms: _359  and  _361
REMARK  150  A    between atoms: _361  and  _362
REMARK  151  A    between atoms: _361  and  _364
REMARK  152  A    between atoms: _367  and  _369
REMARK  153  A    between atoms: _369  and  _370
REMARK  154  A    between atoms: _369  and  _372
REMARK  155  A    between atoms: _375  and  _377
REMARK  156  A    between atoms: _377  and  _378
REMARK  157  A    between atoms: _380  and  _382
REMARK  158  A    between atoms: _382  and  _383
REMARK  159  A    between atoms: _385  and  _387
REMARK  160  A    between atoms: _387  and  _388
REMARK  161  A    between atoms: _387  and  _390
REMARK  162  A    between atoms: _390  and  _391
REMARK  163  A    between atoms: _394  and  _396
REMARK  164  A    between atoms: _396  and  _397
REMARK  165  A    between atoms: _396  and  _399
REMARK  166  A    between atoms: _399  and  _400
REMARK  167  A    between atoms: _400  and  _402
REMARK  168  A    between atoms: _402  and  MG_565
REMARK  169  A    between atoms: _403  and  _405
REMARK  170  A    between atoms: _405  and  _406
REMARK  171  A    between atoms: _405  and  _408
REMARK  172  A    between atoms: _408  and  _409
REMARK  173  A    between atoms: _414  and  _415
REMARK  174  A    between atoms: _417  and  _419
REMARK  175  A    between atoms: _419  and  _420
REMARK  176  A    between atoms: _419  and  _422
REMARK  177  A    between atoms: _422  and  _423
REMARK  178  A    between atoms: _426  and  _428
REMARK  179  A    between atoms: _428  and  _429
REMARK  180  A    between atoms: _428  and  _431
REMARK  181  A    between atoms: _431  and  _432
REMARK  182  A    between atoms: _432  and  _433
REMARK  183  A    between atoms: _436  and  _438
REMARK  184  A    between atoms: _438  and  _439
REMARK  185  A    between atoms: _438  and  _441
REMARK  186  A    between atoms: _441  and  _442
REMARK  187  A    between atoms: _442  and  _443
REMARK  188  A    between atoms: _443  and  _444
REMARK  189  A    between atoms: _453  and  _455
REMARK  190  A    between atoms: _455  and  _456
REMARK  191  A    between atoms: _455  and  _458
REMARK  192  A    between atoms: _458  and  _459
REMARK  193  A    between atoms: _464  and  _465
REMARK  194  A    between atoms: _467  and  _469
REMARK  195  A    between atoms: _469  and  _470
REMARK  196  A    between atoms: _469  and  _472
REMARK  197  A    between atoms: _472  and  _473
REMARK  198  A    between atoms: _473  and  _474
REMARK  199  A    between atoms: _474  and  _475
REMARK  200  A    between atoms: _484  and  _486
REMARK  201  A    between atoms: _486  and  _487
REMARK  202  A    between atoms: _486  and  _489
REMARK  203  A    between atoms: _489  and  _490
REMARK  204  A    between atoms: _493  and  _495
REMARK  205  A    between atoms: _495  and  _496
REMARK  206  A    between atoms: _498  and  _500
REMARK  207  A    between atoms: _500  and  _501
REMARK  208  A    between atoms: _500  and  _503
REMARK  209  A    between atoms: _503  and  _504
REMARK  210  A    between atoms: _507  and  _509
REMARK  211  A    between atoms: _509  and  _510
REMARK  212  A    between atoms: _509  and  _512
REMARK  213  A    between atoms: _512  and  _513
REMARK  214  A    between atoms: _518  and  _519
REMARK  215  A    between atoms: _521  and  _523
REMARK  216  A    between atoms: _523  and  _524
REMARK  217  A    between atoms: _523  and  _526
REMARK  218  A    between atoms: _526  and  _527
REMARK  219  A    between atoms: _533  and  _535
REMARK  220  A    between atoms: _535  and  _536
REMARK  221  A    between atoms: _535  and  _538
REMARK  222  A    between atoms: _538  and  _539
REMARK  223  A    between atoms: _545  and  _547
REMARK  224  A    between atoms: _547  and  _548
REMARK  225  A    between atoms: _547  and  _550
REMARK  226  A    between atoms: _550  and  _551
REMARK  227  A    between atoms: _554  and  _556
REMARK  228  A    between atoms: _556  and  _557
REMARK  229  A    between atoms: _556  and  _559
REMARK  230  A    between atoms: _559  and  _560
REMARK                            x       y       z     vdW  Elec       q    Type
REMARK                         _______ _______ _______ _____ _____    ______ ____
ROOT
ATOM      1  CB  PHE A   1      -5.564  -1.545 126.478  0.00  0.00    +0.051 C 
ENDROOT
BRANCH   1   2
ATOM      2  CG  PHE A   1      -6.511  -1.577 127.641  0.00  0.00    -0.020 A 
ATOM      3  CD2 PHE A   1      -6.381  -0.672 128.681  0.00  0.00    -0.004 A 
ATOM      4  CE2 PHE A   1      -7.254  -0.693 129.751  0.00  0.00    -0.000 A 
ATOM      5  CZ  PHE A   1      -8.273  -1.620 129.788  0.00  0.00    -0.000 A 
ATOM      6  CE1 PHE A   1      -8.417  -2.529 128.757  0.00  0.00    -0.000 A 
ATOM      7  CD1 PHE A   1      -7.540  -2.503 127.689  0.00  0.00    -0.004 A 
ENDBRANCH   1   2
BRANCH   1   8
ATOM      8  CA  PHE A   1      -4.406  -2.537 126.594  0.00  0.00    +0.137 C 
BRANCH   8   9
ATOM      9  N   PHE A   1      -3.526  -2.163 127.695  0.00  0.00    -0.239 NA
ATOM     10  H   PHE A   1      -3.248  -1.167 127.808  0.00  0.00    +0.142 HD
ENDBRANCH   8   9
BRANCH   8  11
ATOM     11  C   PHE A   1      -3.685  -2.621 125.254  0.00  0.00    +0.224 C 
ATOM     12  O   PHE A   1      -2.897  -1.744 124.898  0.00  0.00    -0.287 OA
ENDBRANCH   8  11
ENDBRANCH   1   8
TORSDOF 4
REMARK  Name = ../refined-set-2016/4rhx/4rhx_pocket.pdb
REMARK  230 active torsions:
REMARK  status: ('A' for Active; 'I' for Inactive)
REMARK    1  A    between atoms: _1  and  _3
REMARK    2  A    between atoms: _3  and  _4
REMARK    3  A    between atoms: _3  and  _6
REMARK    4  A    between atoms: _6  and  _7
REMARK    5  A    between atoms: _10  and  _12
REMARK    6  A    between atoms: _12  and  _13
REMARK    7  A    between atoms: _12  and  _15
REMARK    8  A    between atoms: _18  and  _20
REMARK    9  A    between atoms: _20  and  _21
REMARK   10  A    between atoms: _20  and  _23
REMARK   11  A    between atoms: _23  and  _24
REMARK   12  A    between atoms: _27  and  _29
REMARK   13  A    between atoms: _29  and  _30
REMARK   14  A    between atoms: _29  and  _32
REMARK   15  A    between atoms: _32  and  _33
REMARK   16  A    between atoms: _33  and  _34
REMARK   17  A    between atoms: _34  and  _35
REMARK   18  A    between atoms: _35  and  _36
REMARK   19  A    between atoms: _40  and  _42
REMARK   20  A    between atoms: _42  and  _43
REMARK   21  A    between atoms: _45  and  _47
REMARK   22  A    between atoms: _47  and  _48
REMARK   23  A    between atoms: _51  and  _53
REMARK   24  A    between atoms: _53  and  _54
REMARK   25  A    between atoms: _53  and  _56
REMARK   26  A    between atoms: _59  and  _61
REMARK   27  A    between atoms: _61  and  _62
REMARK   28  A    between atoms: _61  and  _64
REMARK   29  A    between atoms: _64  and  _65
REMARK   30  A    between atoms: _65  and  _66
REMARK   31  A    between atoms: _68  and  _70
REMARK   32  A    between atoms: _70  and  _71
REMARK   33  A    between atoms: _74  and  _76
REMARK   34  A    between atoms: _76  and  _77
REMARK   35  A    between atoms: _76  and  _79
REMARK   36  A    between atoms: _82  and  _84
REMARK   37  A    between atoms: _84  and  _85
REMARK   38  A    between atoms: _84  and  _87
REMARK   39  A    between atoms: _87  and  _88
REMARK   40  A    between atoms: _90  and  _92
REMARK   41  A    between atoms: _92  and  _93
REMARK   42  A    between atoms: _92  and  _95
REMARK   43  A    between atoms: _95  and  _96
REMARK   44  A    between atoms: _98  and  _100
REMARK   45  A    between atoms: _100  and  _101
REMARK   46  A    between atoms: _100  and  _103
REMARK   47  A    between atoms: _103  and  _104
REMARK   48  A    between atoms: _109  and  _110
REMARK   49  A    between atoms: _112  and  _114
REMARK   50  A    between atoms: _114  and  _115
REMARK   51  A    between atoms: _117  and  _119
REMARK   52  A    between atoms: _119  and  _120
REMARK   53  A    between atoms: _119  and  _122
REMARK   54  A    between atoms: _125  and  _127
REMARK   55  A    between atoms: _127  and  _128
REMARK   56  A    between atoms: _127  and  _130
REMARK   57  A    between atoms: _130  and  _131
REMARK   58  A    between atoms: _131  and  _132
REMARK   59  A    between atoms: _132  and  _133
REMARK   60  A    between atoms: _142  and  _144
REMARK   61  A    between atoms: _144  and  _145
REMARK   62  A    between atoms: _144  and  _147
REMARK   63  A    between atoms: _147  and  _148
REMARK   64  A    between atoms: _151  and  _153
REMARK   65  A    between atoms: _153  and  _154
REMARK   66  A    between atoms: _153  and  _156
REMARK   67  A    between atoms: _156  and  _157
REMARK   68  A    between atoms: _157  and  _158
REMARK   69  A    between atoms: _161  and  _163
REMARK   70  A    between atoms: _163  and  _164
REMARK   71  A    between atoms: _163  and  _166
REMARK   72  A    between atoms: _166  and  _167
REMARK   73  A    between atoms: _170  and  _172
REMARK   74  A    between atoms: _172  and  _173
REMARK   75  A    between atoms: _172  and  _175
REMARK   76  A    between atoms: _178  and  _180
REMARK   77  A    between atoms: _180  and  _181
REMARK   78  A    between atoms: _180  and  _183
REMARK   79  A    between atoms: _186  and  _188
REMARK   80  A    between atoms: _188  and  _189
REMARK   81  A    between atoms: _188  and  _191
REMARK   82  A    between atoms: _191  and  _192
REMARK   83  A    between atoms: _195  and  _197
REMARK   84  A    between atoms: _197  and  _198
REMARK   85  A    between atoms: _197  and  _200
REMARK   86  A    between atoms: _200  and  _201
REMARK   87  A    between atoms: _203  and  _205
REMARK   88  A    between atoms: _205  and  _206
REMARK   89  A    between atoms: _208  and  _210
REMARK   90  A    between atoms: _210  and  _211
REMARK   91  A    between atoms: _210  and  _213
REMARK   92  A    between atoms: _213  and  _214
REMARK   93  A    between atoms: _217  and  _219
REMARK   94  A    between atoms: _219  and  _220
REMARK   95  A    between atoms: _219  and  _222
REMARK   96  A    between atoms: _222  and  _223
REMARK   97  A    between atoms: _226  and  _228
REMARK   98  A    between atoms: _228  and  _229
REMARK   99  A    between atoms: _228  and  _231
REMARK  100  A    between atoms: _231  and  _232
REMARK  101  A    between atoms: _235  and  _237
REMARK  102  A    between atoms: _237  and  _238
REMARK  103  A    between atoms: _237  and  _240
REMARK  104  A    between atoms: _240  and  _241
REMARK  105  A    between atoms: _243  and  _245
REMARK  106  A    between atoms: _245  and  _246
REMARK  107  A    between atoms: _245  and  _248
REMARK  108  A    between atoms: _248  and  _249
REMARK  109  A    between atoms: _259  and  _261
REMARK  110  A    between atoms: _261  and  _262
REMARK  111  A    between atoms: _261  and  _264
REMARK  112  A    between atoms: _264  and  _265
REMARK  113  A    between atoms: _268  and  _270
REMARK  114  A    between atoms: _270  and  _271
REMARK  115  A    between atoms: _270  and  _273
REMARK  116  A    between atoms: _273  and  _274
REMARK  117  A    between atoms: _277  and  _279
REMARK  118  A    between atoms: _279  and  _280
REMARK  119  A    between atoms: _279  and  _282
REMARK  120  A    between atoms: _282  and  _283
REMARK  121  A    between atoms: _283  and  _284
REMARK  122  A    between atoms: _284  and  _285
REMARK  123  A    between atoms: _285  and  _286
REMARK  124  A    between atoms: _290  and  _292
REMARK  125  A    between atoms: _292  and  _293
REMARK  126  A    between atoms: _292  and  _295
REMARK  127  A    between atoms: _295  and  _296
REMARK  128  A    between atoms: _299  and  _301
REMARK  129  A    between atoms: _301  and  _302
REMARK  130  A    between atoms: _305  and  _307
REMARK  131  A    between atoms: _307  and  _308
REMARK  132  A    between atoms: _311  and  _313
REMARK  133  A    between atoms: _313  and  _314
REMARK  134  A    between atoms: _313  and  _316
REMARK  135  A    between atoms: _316  and  _317
REMARK  136  A    between atoms: _321  and  _322
REMARK  137  A    between atoms: _327  and  _329
REMARK  138  A    between atoms: _329  and  _330
REMARK  139  A    between atoms: _329  and  _332
REMARK  140  A    between atoms: _332  and  _333
REMARK  141  A    between atoms: _338  and  _340
REMARK  142  A    between atoms: _340  and  _341
REMARK  143  A    between atoms: _340  and  _343
REMARK  144  A    between atoms: _343  and  _344
REMARK  145  A    between atoms: _347  and  _349
REMARK  146  A    between atoms: _349  and  _350
REMARK  147  A    between atoms: _349  and  _352
REMARK  148  A    between atoms: _352  and  _353
REMARK  149  A    between atoms: _359  and  _361
REMARK  150  A    between atoms: _361  and  _362
REMARK  151  A    between atoms: _361  and  _364
REMARK  152  A    between atoms: _367  and  _369
REMARK  153  A    between atoms: _369  and  _370
REMARK  154  A    between atoms: _369  and  _372
REMARK  155  A    between atoms: _375  and  _377
REMARK  156  A    between atoms: _377  and  _378
REMARK  157  A    between atoms: _380  and  _382
REMARK  158  A    between atoms: _382  and  _383
REMARK  159  A    between atoms: _385  and  _387
REMARK  160  A    between atoms: _387  and  _388
REMARK  161  A    between atoms: _387  and  _390
REMARK  162  A    between atoms: _390  and  _391
REMARK  163  A    between atoms: _394  and  _396
REMARK  164  A    between atoms: _396  and  _397
REMARK  165  A    between atoms: _396  and  _399
REMARK  166  A    between atoms: _399  and  _400
REMARK  167  A    between atoms: _400  and  _402
REMARK  168  A    between atoms: _402  and  MG_565
REMARK  169  A    between atoms: _403  and  _405
REMARK  170  A    between atoms: _405  and  _406
REMARK  171  A    between atoms: _405  and  _408
REMARK  172  A    between atoms: _408  and  _409
REMARK  173  A    between atoms: _414  and  _415
REMARK  174  A    between atoms: _417  and  _419
REMARK  175  A    between atoms: _419  and  _420
REMARK  176  A    between atoms: _419  and  _422
REMARK  177  A    between atoms: _422  and  _423
REMARK  178  A    between atoms: _426  and  _428
REMARK  179  A    between atoms: _428  and  _429
REMARK  180  A    between atoms: _428  and  _431
REMARK  181  A    between atoms: _431  and  _432
REMARK  182  A    between atoms: _432  and  _433
REMARK  183  A    between atoms: _436  and  _438
REMARK  184  A    between atoms: _438  and  _439
REMARK  185  A    between atoms: _438  and  _441
REMARK  186  A    between atoms: _441  and  _442
REMARK  187  A    between atoms: _442  and  _443
REMARK  188  A    between atoms: _443  and  _444
REMARK  189  A    between atoms: _453  and  _455
REMARK  190  A    between atoms: _455  and  _456
REMARK  191  A    between atoms: _455  and  _458
REMARK  192  A    between atoms: _458  and  _459
REMARK  193  A    between atoms: _464  and  _465
REMARK  194  A    between atoms: _467  and  _469
REMARK  195  A    between atoms: _469  and  _470
REMARK  196  A    between atoms: _469  and  _472
REMARK  197  A    between atoms: _472  and  _473
REMARK  198  A    between atoms: _473  and  _474
REMARK  199  A    between atoms: _474  and  _475
REMARK  200  A    between atoms: _484  and  _486
REMARK  201  A    between atoms: _486  and  _487
REMARK  202  A    between atoms: _486  and  _489
REMARK  203  A    between atoms: _489  and  _490
REMARK  204  A    between atoms: _493  and  _495
REMARK  205  A    between atoms: _495  and  _496
REMARK  206  A    between atoms: _498  and  _500
REMARK  207  A    between atoms: _500  and  _501
REMARK  208  A    between atoms: _500  and  _503
REMARK  209  A    between atoms: _503  and  _504
REMARK  210  A    between atoms: _507  and  _509
REMARK  211  A    between atoms: _509  and  _510
REMARK  212  A    between atoms: _509  and  _512
REMARK  213  A    between atoms: _512  and  _513
REMARK  214  A    between atoms: _518  and  _519
REMARK  215  A    between atoms: _521  and  _523
REMARK  216  A    between atoms: _523  and  _524
REMARK  217  A    between atoms: _523  and  _526
REMARK  218  A    between atoms: _526  and  _527
REMARK  219  A    between atoms: _533  and  _535
REMARK  220  A    between atoms: _535  and  _536
REMARK  221  A    between atoms: _535  and  _538
REMARK  222  A    between atoms: _538  and  _539
REMARK  223  A    between atoms: _545  and  _547
REMARK  224  A    between atoms: _547  and  _548
REMARK  225  A    between atoms: _547  and  _550
REMARK  226  A    between atoms: _550  and  _551
REMARK  227  A    between atoms: _554  and  _556
REMARK  228  A    between atoms: _556  and  _557
REMARK  229  A    between atoms: _556  and  _559
REMARK  230  A    between atoms: _559  and  _560
REMARK                            x       y       z     vdW  Elec       q    Type
REMARK                         _______ _______ _______ _____ _____    ______ ____
ROOT
ATOM      1  CB  PHE A   1      -6.682  -3.017 119.910  0.00  0.00    +0.051 C 
ENDROOT
BRANCH   1   2
ATOM      2  CG  PHE A   1      -7.249  -2.456 121.179  0.00  0.00    -0.020 A 
ATOM      3  CD2 PHE A   1      -6.617  -1.413 121.836  0.00  0.00    -0.004 A 
ATOM      4  CE2 PHE A   1      -7.133  -0.902 123.011  0.00  0.00    -0.000 A 
ATOM      5  CZ  PHE A   1      -8.287  -1.437 123.546  0.00  0.00    -0.000 A 
ATOM      6  CE1 PHE A   1      -8.924  -2.480 122.904  0.00  0.00    -0.000 A 
ATOM      7  CD1 PHE A   1      -8.404  -2.985 121.728  0.00  0.00    -0.004 A 
ENDBRANCH   1   2
BRANCH   1   8
ATOM      8  CA  PHE A   1      -5.796  -4.245 120.127  0.00  0.00    +0.137 C 
BRANCH   8   9
ATOM      9  N   PHE A   1      -4.688  -3.914 121.014  0.00  0.00    -0.239 NA
ATOM     10  H   PHE A   1      -3.885  -3.365 120.647  0.00  0.00    +0.142 HD
ENDBRANCH   8   9
BRANCH   8  11
ATOM     11  C   PHE A   1      -5.318  -4.790 118.789  0.00  0.00    +0.224 C 
ATOM     12  O   PHE A   1      -4.461  -4.198 118.135  0.00  0.00    -0.287 OA
ENDBRANCH   8  11
ENDBRANCH   1   8
TORSDOF 4
REMARK  Name = ../refined-set-2016/4rhx/4rhx_pocket.pdb
REMARK  230 active torsions:
REMARK  status: ('A' for Active; 'I' for Inactive)
REMARK    1  A    between atoms: _1  and  _3
REMARK    2  A    between atoms: _3  and  _4
REMARK    3  A    between atoms: _3  and  _6
REMARK    4  A    between atoms: _6  and  _7
REMARK    5  A    between atoms: _10  and  _12
REMARK    6  A    between atoms: _12  and  _13
REMARK    7  A    between atoms: _12  and  _15
REMARK    8  A    between atoms: _18  and  _20
REMARK    9  A    between atoms: _20  and  _21
REMARK   10  A    between atoms: _20  and  _23
REMARK   11  A    between atoms: _23  and  _24
REMARK   12  A    between atoms: _27  and  _29
REMARK   13  A    between atoms: _29  and  _30
REMARK   14  A    between atoms: _29  and  _32
REMARK   15  A    between atoms: _32  and  _33
REMARK   16  A    between atoms: _33  and  _34
REMARK   17  A    between atoms: _34  and  _35
REMARK   18  A    between atoms: _35  and  _36
REMARK   19  A    between atoms: _40  and  _42
REMARK   20  A    between atoms: _42  and  _43
REMARK   21  A    between atoms: _45  and  _47
REMARK   22  A    between atoms: _47  and  _48
REMARK   23  A    between atoms: _51  and  _53
REMARK   24  A    between atoms: _53  and  _54
REMARK   25  A    between atoms: _53  and  _56
REMARK   26  A    between atoms: _59  and  _61
REMARK   27  A    between atoms: _61  and  _62
REMARK   28  A    between atoms: _61  and  _64
REMARK   29  A    between atoms: _64  and  _65
REMARK   30  A    between atoms: _65  and  _66
REMARK   31  A    between atoms: _68  and  _70
REMARK   32  A    between atoms: _70  and  _71
REMARK   33  A    between atoms: _74  and  _76
REMARK   34  A    between atoms: _76  and  _77
REMARK   35  A    between atoms: _76  and  _79
REMARK   36  A    between atoms: _82  and  _84
REMARK   37  A    between atoms: _84  and  _85
REMARK   38  A    between atoms: _84  and  _87
REMARK   39  A    between atoms: _87  and  _88
REMARK   40  A    between atoms: _90  and  _92
REMARK   41  A    between atoms: _92  and  _93
REMARK   42  A    between atoms: _92  and  _95
REMARK   43  A    between atoms: _95  and  _96
REMARK   44  A    between atoms: _98  and  _100
REMARK   45  A    between atoms: _100  and  _101
REMARK   46  A    between atoms: _100  and  _103
REMARK   47  A    between atoms: _103  and  _104
REMARK   48  A    between atoms: _109  and  _110
REMARK   49  A    between atoms: _112  and  _114
REMARK   50  A    between atoms: _114  and  _115
REMARK   51  A    between atoms: _117  and  _119
REMARK   52  A    between atoms: _119  and  _120
REMARK   53  A    between atoms: _119  and  _122
REMARK   54  A    between atoms: _125  and  _127
REMARK   55  A    between atoms: _127  and  _128
REMARK   56  A    between atoms: _127  and  _130
REMARK   57  A    between atoms: _130  and  _131
REMARK   58  A    between atoms: _131  and  _132
REMARK   59  A    between atoms: _132  and  _133
REMARK   60  A    between atoms: _142  and  _144
REMARK   61  A    between atoms: _144  and  _145
REMARK   62  A    between atoms: _144  and  _147
REMARK   63  A    between atoms: _147  and  _148
REMARK   64  A    between atoms: _151  and  _153
REMARK   65  A    between atoms: _153  and  _154
REMARK   66  A    between atoms: _153  and  _156
REMARK   67  A    between atoms: _156  and  _157
REMARK   68  A    between atoms: _157  and  _158
REMARK   69  A    between atoms: _161  and  _163
REMARK   70  A    between atoms: _163  and  _164
REMARK   71  A    between atoms: _163  and  _166
REMARK   72  A    between atoms: _166  and  _167
REMARK   73  A    between atoms: _170  and  _172
REMARK   74  A    between atoms: _172  and  _173
REMARK   75  A    between atoms: _172  and  _175
REMARK   76  A    between atoms: _178  and  _180
REMARK   77  A    between atoms: _180  and  _181
REMARK   78  A    between atoms: _180  and  _183
REMARK   79  A    between atoms: _186  and  _188
REMARK   80  A    between atoms: _188  and  _189
REMARK   81  A    between atoms: _188  and  _191
REMARK   82  A    between atoms: _191  and  _192
REMARK   83  A    between atoms: _195  and  _197
REMARK   84  A    between atoms: _197  and  _198
REMARK   85  A    between atoms: _197  and  _200
REMARK   86  A    between atoms: _200  and  _201
REMARK   87  A    between atoms: _203  and  _205
REMARK   88  A    between atoms: _205  and  _206
REMARK   89  A    between atoms: _208  and  _210
REMARK   90  A    between atoms: _210  and  _211
REMARK   91  A    between atoms: _210  and  _213
REMARK   92  A    between atoms: _213  and  _214
REMARK   93  A    between atoms: _217  and  _219
REMARK   94  A    between atoms: _219  and  _220
REMARK   95  A    between atoms: _219  and  _222
REMARK   96  A    between atoms: _222  and  _223
REMARK   97  A    between atoms: _226  and  _228
REMARK   98  A    between atoms: _228  and  _229
REMARK   99  A    between atoms: _228  and  _231
REMARK  100  A    between atoms: _231  and  _232
REMARK  101  A    between atoms: _235  and  _237
REMARK  102  A    between atoms: _237  and  _238
REMARK  103  A    between atoms: _237  and  _240
REMARK  104  A    between atoms: _240  and  _241
REMARK  105  A    between atoms: _243  and  _245
REMARK  106  A    between atoms: _245  and  _246
REMARK  107  A    between atoms: _245  and  _248
REMARK  108  A    between atoms: _248  and  _249
REMARK  109  A    between atoms: _259  and  _261
REMARK  110  A    between atoms: _261  and  _262
REMARK  111  A    between atoms: _261  and  _264
REMARK  112  A    between atoms: _264  and  _265
REMARK  113  A    between atoms: _268  and  _270
REMARK  114  A    between atoms: _270  and  _271
REMARK  115  A    between atoms: _270  and  _273
REMARK  116  A    between atoms: _273  and  _274
REMARK  117  A    between atoms: _277  and  _279
REMARK  118  A    between atoms: _279  and  _280
REMARK  119  A    between atoms: _279  and  _282
REMARK  120  A    between atoms: _282  and  _283
REMARK  121  A    between atoms: _283  and  _284
REMARK  122  A    between atoms: _284  and  _285
REMARK  123  A    between atoms: _285  and  _286
REMARK  124  A    between atoms: _290  and  _292
REMARK  125  A    between atoms: _292  and  _293
REMARK  126  A    between atoms: _292  and  _295
REMARK  127  A    between atoms: _295  and  _296
REMARK  128  A    between atoms: _299  and  _301
REMARK  129  A    between atoms: _301  and  _302
REMARK  130  A    between atoms: _305  and  _307
REMARK  131  A    between atoms: _307  and  _308
REMARK  132  A    between atoms: _311  and  _313
REMARK  133  A    between atoms: _313  and  _314
REMARK  134  A    between atoms: _313  and  _316
REMARK  135  A    between atoms: _316  and  _317
REMARK  136  A    between atoms: _321  and  _322
REMARK  137  A    between atoms: _327  and  _329
REMARK  138  A    between atoms: _329  and  _330
REMARK  139  A    between atoms: _329  and  _332
REMARK  140  A    between atoms: _332  and  _333
REMARK  141  A    between atoms: _338  and  _340
REMARK  142  A    between atoms: _340  and  _341
REMARK  143  A    between atoms: _340  and  _343
REMARK  144  A    between atoms: _343  and  _344
REMARK  145  A    between atoms: _347  and  _349
REMARK  146  A    between atoms: _349  and  _350
REMARK  147  A    between atoms: _349  and  _352
REMARK  148  A    between atoms: _352  and  _353
REMARK  149  A    between atoms: _359  and  _361
REMARK  150  A    between atoms: _361  and  _362
REMARK  151  A    between atoms: _361  and  _364
REMARK  152  A    between atoms: _367  and  _369
REMARK  153  A    between atoms: _369  and  _370
REMARK  154  A    between atoms: _369  and  _372
REMARK  155  A    between atoms: _375  and  _377
REMARK  156  A    between atoms: _377  and  _378
REMARK  157  A    between atoms: _380  and  _382
REMARK  158  A    between atoms: _382  and  _383
REMARK  159  A    between atoms: _385  and  _387
REMARK  160  A    between atoms: _387  and  _388
REMARK  161  A    between atoms: _387  and  _390
REMARK  162  A    between atoms: _390  and  _391
REMARK  163  A    between atoms: _394  and  _396
REMARK  164  A    between atoms: _396  and  _397
REMARK  165  A    between atoms: _396  and  _399
REMARK  166  A    between atoms: _399  and  _400
REMARK  167  A    between atoms: _400  and  _402
REMARK  168  A    between atoms: _402  and  MG_565
REMARK  169  A    between atoms: _403  and  _405
REMARK  170  A    between atoms: _405  and  _406
REMARK  171  A    between atoms: _405  and  _408
REMARK  172  A    between atoms: _408  and  _409
REMARK  173  A    between atoms: _414  and  _415
REMARK  174  A    between atoms: _417  and  _419
REMARK  175  A    between atoms: _419  and  _420
REMARK  176  A    between atoms: _419  and  _422
REMARK  177  A    between atoms: _422  and  _423
REMARK  178  A    between atoms: _426  and  _428
REMARK  179  A    between atoms: _428  and  _429
REMARK  180  A    between atoms: _428  and  _431
REMARK  181  A    between atoms: _431  and  _432
REMARK  182  A    between atoms: _432  and  _433
REMARK  183  A    between atoms: _436  and  _438
REMARK  184  A    between atoms: _438  and  _439
REMARK  185  A    between atoms: _438  and  _441
REMARK  186  A    between atoms: _441  and  _442
REMARK  187  A    between atoms: _442  and  _443
REMARK  188  A    between atoms: _443  and  _444
REMARK  189  A    between atoms: _453  and  _455
REMARK  190  A    between atoms: _455  and  _456
REMARK  191  A    between atoms: _455  and  _458
REMARK  192  A    between atoms: _458  and  _459
REMARK  193  A    between atoms: _464  and  _465
REMARK  194  A    between atoms: _467  and  _469
REMARK  195  A    between atoms: _469  and  _470
REMARK  196  A    between atoms: _469  and  _472
REMARK  197  A    between atoms: _472  and  _473
REMARK  198  A    between atoms: _473  and  _474
REMARK  199  A    between atoms: _474  and  _475
REMARK  200  A    between atoms: _484  and  _486
REMARK  201  A    between atoms: _486  and  _487
REMARK  202  A    between atoms: _486  and  _489
REMARK  203  A    between atoms: _489  and  _490
REMARK  204  A    between atoms: _493  and  _495
REMARK  205  A    between atoms: _495  and  _496
REMARK  206  A    between atoms: _498  and  _500
REMARK  207  A    between atoms: _500  and  _501
REMARK  208  A    between atoms: _500  and  _503
REMARK  209  A    between atoms: _503  and  _504
REMARK  210  A    between atoms: _507  and  _509
REMARK  211  A    between atoms: _509  and  _510
REMARK  212  A    between atoms: _509  and  _512
REMARK  213  A    between atoms: _512  and  _513
REMARK  214  A    between atoms: _518  and  _519
REMARK  215  A    between atoms: _521  and  _523
REMARK  216  A    between atoms: _523  and  _524
REMARK  217  A    between atoms: _523  and  _526
REMARK  218  A    between atoms: _526  and  _527
REMARK  219  A    between atoms: _533  and  _535
REMARK  220  A    between atoms: _535  and  _536
REMARK  221  A    between atoms: _535  and  _538
REMARK  222  A    between atoms: _538  and  _539
REMARK  223  A    between atoms: _545  and  _547
REMARK  224  A    between atoms: _547  and  _548
REMARK  225  A    between atoms: _547  and  _550
REMARK  226  A    between atoms: _550  and  _551
REMARK  227  A    between atoms: _554  and  _556
REMARK  228  A    between atoms: _556  and  _557
REMARK  229  A    between atoms: _556  and  _559
REMARK  230  A    between atoms: _559  and  _560
REMARK                            x       y       z     vdW  Elec       q    Type
REMARK                         _______ _______ _______ _____ _____    ______ ____
ROOT
ATOM      1  CA  ASP A   1       1.793  -0.913 118.132  0.00  0.00    +0.144 C 
ENDROOT
BRANCH   1   2
ATOM      2  N   ASP A   1       0.956  -2.105 118.072  0.00  0.00    -0.239 NA
ATOM      3  H   ASP A   1       0.109  -2.161 118.672  0.00  0.00    +0.142 HD
ENDBRANCH   1   2
BRANCH   1   4
ATOM      4  C   ASP A   1       2.881  -1.158 119.166  0.00  0.00    +0.225 C 
ATOM      5  O   ASP A   1       3.583  -0.240 119.590  0.00  0.00    -0.287 OA
ENDBRANCH   1   4
BRANCH   1   6
ATOM      6  CB  ASP A   1       0.975   0.328 118.499  0.00  0.00    +0.139 C 
BRANCH   6   7
ATOM      7  CG  ASP A   1       0.334   0.217 119.870  0.00  0.00    +0.367 C 
ATOM      8  OD2 ASP A   1       0.487   1.152 120.685  0.00  0.00    -0.246 OA
ATOM      9  OD1 ASP A   1      -0.317  -0.811 120.134  0.00  0.00    -0.246 OA
ENDBRANCH   6   7
ENDBRANCH   1   6
TORSDOF 4
REMARK  Name = ../refined-set-2016/4rhx/4rhx_pocket.pdb
REMARK  230 active torsions:
REMARK  status: ('A' for Active; 'I' for Inactive)
REMARK    1  A    between atoms: _1  and  _3
REMARK    2  A    between atoms: _3  and  _4
REMARK    3  A    between atoms: _3  and  _6
REMARK    4  A    between atoms: _6  and  _7
REMARK    5  A    between atoms: _10  and  _12
REMARK    6  A    between atoms: _12  and  _13
REMARK    7  A    between atoms: _12  and  _15
REMARK    8  A    between atoms: _18  and  _20
REMARK    9  A    between atoms: _20  and  _21
REMARK   10  A    between atoms: _20  and  _23
REMARK   11  A    between atoms: _23  and  _24
REMARK   12  A    between atoms: _27  and  _29
REMARK   13  A    between atoms: _29  and  _30
REMARK   14  A    between atoms: _29  and  _32
REMARK   15  A    between atoms: _32  and  _33
REMARK   16  A    between atoms: _33  and  _34
REMARK   17  A    between atoms: _34  and  _35
REMARK   18  A    between atoms: _35  and  _36
REMARK   19  A    between atoms: _40  and  _42
REMARK   20  A    between atoms: _42  and  _43
REMARK   21  A    between atoms: _45  and  _47
REMARK   22  A    between atoms: _47  and  _48
REMARK   23  A    between atoms: _51  and  _53
REMARK   24  A    between atoms: _53  and  _54
REMARK   25  A    between atoms: _53  and  _56
REMARK   26  A    between atoms: _59  and  _61
REMARK   27  A    between atoms: _61  and  _62
REMARK   28  A    between atoms: _61  and  _64
REMARK   29  A    between atoms: _64  and  _65
REMARK   30  A    between atoms: _65  and  _66
REMARK   31  A    between atoms: _68  and  _70
REMARK   32  A    between atoms: _70  and  _71
REMARK   33  A    between atoms: _74  and  _76
REMARK   34  A    between atoms: _76  and  _77
REMARK   35  A    between atoms: _76  and  _79
REMARK   36  A    between atoms: _82  and  _84
REMARK   37  A    between atoms: _84  and  _85
REMARK   38  A    between atoms: _84  and  _87
REMARK   39  A    between atoms: _87  and  _88
REMARK   40  A    between atoms: _90  and  _92
REMARK   41  A    between atoms: _92  and  _93
REMARK   42  A    between atoms: _92  and  _95
REMARK   43  A    between atoms: _95  and  _96
REMARK   44  A    between atoms: _98  and  _100
REMARK   45  A    between atoms: _100  and  _101
REMARK   46  A    between atoms: _100  and  _103
REMARK   47  A    between atoms: _103  and  _104
REMARK   48  A    between atoms: _109  and  _110
REMARK   49  A    between atoms: _112  and  _114
REMARK   50  A    between atoms: _114  and  _115
REMARK   51  A    between atoms: _117  and  _119
REMARK   52  A    between atoms: _119  and  _120
REMARK   53  A    between atoms: _119  and  _122
REMARK   54  A    between atoms: _125  and  _127
REMARK   55  A    between atoms: _127  and  _128
REMARK   56  A    between atoms: _127  and  _130
REMARK   57  A    between atoms: _130  and  _131
REMARK   58  A    between atoms: _131  and  _132
REMARK   59  A    between atoms: _132  and  _133
REMARK   60  A    between atoms: _142  and  _144
REMARK   61  A    between atoms: _144  and  _145
REMARK   62  A    between atoms: _144  and  _147
REMARK   63  A    between atoms: _147  and  _148
REMARK   64  A    between atoms: _151  and  _153
REMARK   65  A    between atoms: _153  and  _154
REMARK   66  A    between atoms: _153  and  _156
REMARK   67  A    between atoms: _156  and  _157
REMARK   68  A    between atoms: _157  and  _158
REMARK   69  A    between atoms: _161  and  _163
REMARK   70  A    between atoms: _163  and  _164
REMARK   71  A    between atoms: _163  and  _166
REMARK   72  A    between atoms: _166  and  _167
REMARK   73  A    between atoms: _170  and  _172
REMARK   74  A    between atoms: _172  and  _173
REMARK   75  A    between atoms: _172  and  _175
REMARK   76  A    between atoms: _178  and  _180
REMARK   77  A    between atoms: _180  and  _181
REMARK   78  A    between atoms: _180  and  _183
REMARK   79  A    between atoms: _186  and  _188
REMARK   80  A    between atoms: _188  and  _189
REMARK   81  A    between atoms: _188  and  _191
REMARK   82  A    between atoms: _191  and  _192
REMARK   83  A    between atoms: _195  and  _197
REMARK   84  A    between atoms: _197  and  _198
REMARK   85  A    between atoms: _197  and  _200
REMARK   86  A    between atoms: _200  and  _201
REMARK   87  A    between atoms: _203  and  _205
REMARK   88  A    between atoms: _205  and  _206
REMARK   89  A    between atoms: _208  and  _210
REMARK   90  A    between atoms: _210  and  _211
REMARK   91  A    between atoms: _210  and  _213
REMARK   92  A    between atoms: _213  and  _214
REMARK   93  A    between atoms: _217  and  _219
REMARK   94  A    between atoms: _219  and  _220
REMARK   95  A    between atoms: _219  and  _222
REMARK   96  A    between atoms: _222  and  _223
REMARK   97  A    between atoms: _226  and  _228
REMARK   98  A    between atoms: _228  and  _229
REMARK   99  A    between atoms: _228  and  _231
REMARK  100  A    between atoms: _231  and  _232
REMARK  101  A    between atoms: _235  and  _237
REMARK  102  A    between atoms: _237  and  _238
REMARK  103  A    between atoms: _237  and  _240
REMARK  104  A    between atoms: _240  and  _241
REMARK  105  A    between atoms: _243  and  _245
REMARK  106  A    between atoms: _245  and  _246
REMARK  107  A    between atoms: _245  and  _248
REMARK  108  A    between atoms: _248  and  _249
REMARK  109  A    between atoms: _259  and  _261
REMARK  110  A    between atoms: _261  and  _262
REMARK  111  A    between atoms: _261  and  _264
REMARK  112  A    between atoms: _264  and  _265
REMARK  113  A    between atoms: _268  and  _270
REMARK  114  A    between atoms: _270  and  _271
REMARK  115  A    between atoms: _270  and  _273
REMARK  116  A    between atoms: _273  and  _274
REMARK  117  A    between atoms: _277  and  _279
REMARK  118  A    between atoms: _279  and  _280
REMARK  119  A    between atoms: _279  and  _282
REMARK  120  A    between atoms: _282  and  _283
REMARK  121  A    between atoms: _283  and  _284
REMARK  122  A    between atoms: _284  and  _285
REMARK  123  A    between atoms: _285  and  _286
REMARK  124  A    between atoms: _290  and  _292
REMARK  125  A    between atoms: _292  and  _293
REMARK  126  A    between atoms: _292  and  _295
REMARK  127  A    between atoms: _295  and  _296
REMARK  128  A    between atoms: _299  and  _301
REMARK  129  A    between atoms: _301  and  _302
REMARK  130  A    between atoms: _305  and  _307
REMARK  131  A    between atoms: _307  and  _308
REMARK  132  A    between atoms: _311  and  _313
REMARK  133  A    between atoms: _313  and  _314
REMARK  134  A    between atoms: _313  and  _316
REMARK  135  A    between atoms: _316  and  _317
REMARK  136  A    between atoms: _321  and  _322
REMARK  137  A    between atoms: _327  and  _329
REMARK  138  A    between atoms: _329  and  _330
REMARK  139  A    between atoms: _329  and  _332
REMARK  140  A    between atoms: _332  and  _333
REMARK  141  A    between atoms: _338  and  _340
REMARK  142  A    between atoms: _340  and  _341
REMARK  143  A    between atoms: _340  and  _343
REMARK  144  A    between atoms: _343  and  _344
REMARK  145  A    between atoms: _347  and  _349
REMARK  146  A    between atoms: _349  and  _350
REMARK  147  A    between atoms: _349  and  _352
REMARK  148  A    between atoms: _352  and  _353
REMARK  149  A    between atoms: _359  and  _361
REMARK  150  A    between atoms: _361  and  _362
REMARK  151  A    between atoms: _361  and  _364
REMARK  152  A    between atoms: _367  and  _369
REMARK  153  A    between atoms: _369  and  _370
REMARK  154  A    between atoms: _369  and  _372
REMARK  155  A    between atoms: _375  and  _377
REMARK  156  A    between atoms: _377  and  _378
REMARK  157  A    between atoms: _380  and  _382
REMARK  158  A    between atoms: _382  and  _383
REMARK  159  A    between atoms: _385  and  _387
REMARK  160  A    between atoms: _387  and  _388
REMARK  161  A    between atoms: _387  and  _390
REMARK  162  A    between atoms: _390  and  _391
REMARK  163  A    between atoms: _394  and  _396
REMARK  164  A    between atoms: _396  and  _397
REMARK  165  A    between atoms: _396  and  _399
REMARK  166  A    between atoms: _399  and  _400
REMARK  167  A    between atoms: _400  and  _402
REMARK  168  A    between atoms: _402  and  MG_565
REMARK  169  A    between atoms: _403  and  _405
REMARK  170  A    between atoms: _405  and  _406
REMARK  171  A    between atoms: _405  and  _408
REMARK  172  A    between atoms: _408  and  _409
REMARK  173  A    between atoms: _414  and  _415
REMARK  174  A    between atoms: _417  and  _419
REMARK  175  A    between atoms: _419  and  _420
REMARK  176  A    between atoms: _419  and  _422
REMARK  177  A    between atoms: _422  and  _423
REMARK  178  A    between atoms: _426  and  _428
REMARK  179  A    between atoms: _428  and  _429
REMARK  180  A    between atoms: _428  and  _431
REMARK  181  A    between atoms: _431  and  _432
REMARK  182  A    between atoms: _432  and  _433
REMARK  183  A    between atoms: _436  and  _438
REMARK  184  A    between atoms: _438  and  _439
REMARK  185  A    between atoms: _438  and  _441
REMARK  186  A    between atoms: _441  and  _442
REMARK  187  A    between atoms: _442  and  _443
REMARK  188  A    between atoms: _443  and  _444
REMARK  189  A    between atoms: _453  and  _455
REMARK  190  A    between atoms: _455  and  _456
REMARK  191  A    between atoms: _455  and  _458
REMARK  192  A    between atoms: _458  and  _459
REMARK  193  A    between atoms: _464  and  _465
REMARK  194  A    between atoms: _467  and  _469
REMARK  195  A    between atoms: _469  and  _470
REMARK  196  A    between atoms: _469  and  _472
REMARK  197  A    between atoms: _472  and  _473
REMARK  198  A    between atoms: _473  and  _474
REMARK  199  A    between atoms: _474  and  _475
REMARK  200  A    between atoms: _484  and  _486
REMARK  201  A    between atoms: _486  and  _487
REMARK  202  A    between atoms: _486  and  _489
REMARK  203  A    between atoms: _489  and  _490
REMARK  204  A    between atoms: _493  and  _495
REMARK  205  A    between atoms: _495  and  _496
REMARK  206  A    between atoms: _498  and  _500
REMARK  207  A    between atoms: _500  and  _501
REMARK  208  A    between atoms: _500  and  _503
REMARK  209  A    between atoms: _503  and  _504
REMARK  210  A    between atoms: _507  and  _509
REMARK  211  A    between atoms: _509  and  _510
REMARK  212  A    between atoms: _509  and  _512
REMARK  213  A    between atoms: _512  and  _513
REMARK  214  A    between atoms: _518  and  _519
REMARK  215  A    between atoms: _521  and  _523
REMARK  216  A    between atoms: _523  and  _524
REMARK  217  A    between atoms: _523  and  _526
REMARK  218  A    between atoms: _526  and  _527
REMARK  219  A    between atoms: _533  and  _535
REMARK  220  A    between atoms: _535  and  _536
REMARK  221  A    between atoms: _535  and  _538
REMARK  222  A    between atoms: _538  and  _539
REMARK  223  A    between atoms: _545  and  _547
REMARK  224  A    between atoms: _547  and  _548
REMARK  225  A    between atoms: _547  and  _550
REMARK  226  A    between atoms: _550  and  _551
REMARK  227  A    between atoms: _554  and  _556
REMARK  228  A    between atoms: _556  and  _557
REMARK  229  A    between atoms: _556  and  _559
REMARK  230  A    between atoms: _559  and  _560
REMARK                            x       y       z     vdW  Elec       q    Type
REMARK                         _______ _______ _______ _____ _____    ______ ____
ROOT
ATOM      1  CB  HIS A   1      -4.404  27.060 115.721  0.00  0.00    +0.072 C 
ENDROOT
BRANCH   1   2
ATOM      2  CG  HIS A   1      -3.830  25.945 116.548  0.00  0.00    +0.082 A 
ATOM      3  ND1 HIS A   1      -4.607  25.147 117.351  0.00  0.00    -0.227 NA
ATOM      4  CE1 HIS A   1      -3.832  24.260 117.961  0.00  0.00    +0.199 A 
ATOM      5  NE2 HIS A   1      -2.589  24.464 117.581  0.00  0.00    -0.221 NA
ATOM      6  CD2 HIS A   1      -2.556  25.520 116.695  0.00  0.00    +0.115 A 
ENDBRANCH   1   2
BRANCH   1   7
ATOM      7  CA  HIS A   1      -5.537  26.623 114.788  0.00  0.00    +0.139 C 
BRANCH   7   8
ATOM      8  N   HIS A   1      -5.033  25.742 113.738  0.00  0.00    -0.239 NA
ATOM      9  H   HIS A   1      -4.021  25.501 113.723  0.00  0.00    +0.142 HD
ENDBRANCH   7   8
BRANCH   7  10
ATOM     10  C   HIS A   1      -6.217  27.854 114.198  0.00  0.00    +0.224 C 
ATOM     11  O   HIS A   1      -7.289  28.257 114.647  0.00  0.00    -0.287 OA
ENDBRANCH   7  10
ENDBRANCH   1   7
TORSDOF 4
REMARK  Name = ../refined-set-2016/4rhx/4rhx_pocket.pdb
REMARK  230 active torsions:
REMARK  status: ('A' for Active; 'I' for Inactive)
REMARK    1  A    between atoms: _1  and  _3
REMARK    2  A    between atoms: _3  and  _4
REMARK    3  A    between atoms: _3  and  _6
REMARK    4  A    between atoms: _6  and  _7
REMARK    5  A    between atoms: _10  and  _12
REMARK    6  A    between atoms: _12  and  _13
REMARK    7  A    between atoms: _12  and  _15
REMARK    8  A    between atoms: _18  and  _20
REMARK    9  A    between atoms: _20  and  _21
REMARK   10  A    between atoms: _20  and  _23
REMARK   11  A    between atoms: _23  and  _24
REMARK   12  A    between atoms: _27  and  _29
REMARK   13  A    between atoms: _29  and  _30
REMARK   14  A    between atoms: _29  and  _32
REMARK   15  A    between atoms: _32  and  _33
REMARK   16  A    between atoms: _33  and  _34
REMARK   17  A    between atoms: _34  and  _35
REMARK   18  A    between atoms: _35  and  _36
REMARK   19  A    between atoms: _40  and  _42
REMARK   20  A    between atoms: _42  and  _43
REMARK   21  A    between atoms: _45  and  _47
REMARK   22  A    between atoms: _47  and  _48
REMARK   23  A    between atoms: _51  and  _53
REMARK   24  A    between atoms: _53  and  _54
REMARK   25  A    between atoms: _53  and  _56
REMARK   26  A    between atoms: _59  and  _61
REMARK   27  A    between atoms: _61  and  _62
REMARK   28  A    between atoms: _61  and  _64
REMARK   29  A    between atoms: _64  and  _65
REMARK   30  A    between atoms: _65  and  _66
REMARK   31  A    between atoms: _68  and  _70
REMARK   32  A    between atoms: _70  and  _71
REMARK   33  A    between atoms: _74  and  _76
REMARK   34  A    between atoms: _76  and  _77
REMARK   35  A    between atoms: _76  and  _79
REMARK   36  A    between atoms: _82  and  _84
REMARK   37  A    between atoms: _84  and  _85
REMARK   38  A    between atoms: _84  and  _87
REMARK   39  A    between atoms: _87  and  _88
REMARK   40  A    between atoms: _90  and  _92
REMARK   41  A    between atoms: _92  and  _93
REMARK   42  A    between atoms: _92  and  _95
REMARK   43  A    between atoms: _95  and  _96
REMARK   44  A    between atoms: _98  and  _100
REMARK   45  A    between atoms: _100  and  _101
REMARK   46  A    between atoms: _100  and  _103
REMARK   47  A    between atoms: _103  and  _104
REMARK   48  A    between atoms: _109  and  _110
REMARK   49  A    between atoms: _112  and  _114
REMARK   50  A    between atoms: _114  and  _115
REMARK   51  A    between atoms: _117  and  _119
REMARK   52  A    between atoms: _119  and  _120
REMARK   53  A    between atoms: _119  and  _122
REMARK   54  A    between atoms: _125  and  _127
REMARK   55  A    between atoms: _127  and  _128
REMARK   56  A    between atoms: _127  and  _130
REMARK   57  A    between atoms: _130  and  _131
REMARK   58  A    between atoms: _131  and  _132
REMARK   59  A    between atoms: _132  and  _133
REMARK   60  A    between atoms: _142  and  _144
REMARK   61  A    between atoms: _144  and  _145
REMARK   62  A    between atoms: _144  and  _147
REMARK   63  A    between atoms: _147  and  _148
REMARK   64  A    between atoms: _151  and  _153
REMARK   65  A    between atoms: _153  and  _154
REMARK   66  A    between atoms: _153  and  _156
REMARK   67  A    between atoms: _156  and  _157
REMARK   68  A    between atoms: _157  and  _158
REMARK   69  A    between atoms: _161  and  _163
REMARK   70  A    between atoms: _163  and  _164
REMARK   71  A    between atoms: _163  and  _166
REMARK   72  A    between atoms: _166  and  _167
REMARK   73  A    between atoms: _170  and  _172
REMARK   74  A    between atoms: _172  and  _173
REMARK   75  A    between atoms: _172  and  _175
REMARK   76  A    between atoms: _178  and  _180
REMARK   77  A    between atoms: _180  and  _181
REMARK   78  A    between atoms: _180  and  _183
REMARK   79  A    between atoms: _186  and  _188
REMARK   80  A    between atoms: _188  and  _189
REMARK   81  A    between atoms: _188  and  _191
REMARK   82  A    between atoms: _191  and  _192
REMARK   83  A    between atoms: _195  and  _197
REMARK   84  A    between atoms: _197  and  _198
REMARK   85  A    between atoms: _197  and  _200
REMARK   86  A    between atoms: _200  and  _201
REMARK   87  A    between atoms: _203  and  _205
REMARK   88  A    between atoms: _205  and  _206
REMARK   89  A    between atoms: _208  and  _210
REMARK   90  A    between atoms: _210  and  _211
REMARK   91  A    between atoms: _210  and  _213
REMARK   92  A    between atoms: _213  and  _214
REMARK   93  A    between atoms: _217  and  _219
REMARK   94  A    between atoms: _219  and  _220
REMARK   95  A    between atoms: _219  and  _222
REMARK   96  A    between atoms: _222  and  _223
REMARK   97  A    between atoms: _226  and  _228
REMARK   98  A    between atoms: _228  and  _229
REMARK   99  A    between atoms: _228  and  _231
REMARK  100  A    between atoms: _231  and  _232
REMARK  101  A    between atoms: _235  and  _237
REMARK  102  A    between atoms: _237  and  _238
REMARK  103  A    between atoms: _237  and  _240
REMARK  104  A    between atoms: _240  and  _241
REMARK  105  A    between atoms: _243  and  _245
REMARK  106  A    between atoms: _245  and  _246
REMARK  107  A    between atoms: _245  and  _248
REMARK  108  A    between atoms: _248  and  _249
REMARK  109  A    between atoms: _259  and  _261
REMARK  110  A    between atoms: _261  and  _262
REMARK  111  A    between atoms: _261  and  _264
REMARK  112  A    between atoms: _264  and  _265
REMARK  113  A    between atoms: _268  and  _270
REMARK  114  A    between atoms: _270  and  _271
REMARK  115  A    between atoms: _270  and  _273
REMARK  116  A    between atoms: _273  and  _274
REMARK  117  A    between atoms: _277  and  _279
REMARK  118  A    between atoms: _279  and  _280
REMARK  119  A    between atoms: _279  and  _282
REMARK  120  A    between atoms: _282  and  _283
REMARK  121  A    between atoms: _283  and  _284
REMARK  122  A    between atoms: _284  and  _285
REMARK  123  A    between atoms: _285  and  _286
REMARK  124  A    between atoms: _290  and  _292
REMARK  125  A    between atoms: _292  and  _293
REMARK  126  A    between atoms: _292  and  _295
REMARK  127  A    between atoms: _295  and  _296
REMARK  128  A    between atoms: _299  and  _301
REMARK  129  A    between atoms: _301  and  _302
REMARK  130  A    between atoms: _305  and  _307
REMARK  131  A    between atoms: _307  and  _308
REMARK  132  A    between atoms: _311  and  _313
REMARK  133  A    between atoms: _313  and  _314
REMARK  134  A    between atoms: _313  and  _316
REMARK  135  A    between atoms: _316  and  _317
REMARK  136  A    between atoms: _321  and  _322
REMARK  137  A    between atoms: _327  and  _329
REMARK  138  A    between atoms: _329  and  _330
REMARK  139  A    between atoms: _329  and  _332
REMARK  140  A    between atoms: _332  and  _333
REMARK  141  A    between atoms: _338  and  _340
REMARK  142  A    between atoms: _340  and  _341
REMARK  143  A    between atoms: _340  and  _343
REMARK  144  A    between atoms: _343  and  _344
REMARK  145  A    between atoms: _347  and  _349
REMARK  146  A    between atoms: _349  and  _350
REMARK  147  A    between atoms: _349  and  _352
REMARK  148  A    between atoms: _352  and  _353
REMARK  149  A    between atoms: _359  and  _361
REMARK  150  A    between atoms: _361  and  _362
REMARK  151  A    between atoms: _361  and  _364
REMARK  152  A    between atoms: _367  and  _369
REMARK  153  A    between atoms: _369  and  _370
REMARK  154  A    between atoms: _369  and  _372
REMARK  155  A    between atoms: _375  and  _377
REMARK  156  A    between atoms: _377  and  _378
REMARK  157  A    between atoms: _380  and  _382
REMARK  158  A    between atoms: _382  and  _383
REMARK  159  A    between atoms: _385  and  _387
REMARK  160  A    between atoms: _387  and  _388
REMARK  161  A    between atoms: _387  and  _390
REMARK  162  A    between atoms: _390  and  _391
REMARK  163  A    between atoms: _394  and  _396
REMARK  164  A    between atoms: _396  and  _397
REMARK  165  A    between atoms: _396  and  _399
REMARK  166  A    between atoms: _399  and  _400
REMARK  167  A    between atoms: _400  and  _402
REMARK  168  A    between atoms: _402  and  MG_565
REMARK  169  A    between atoms: _403  and  _405
REMARK  170  A    between atoms: _405  and  _406
REMARK  171  A    between atoms: _405  and  _408
REMARK  172  A    between atoms: _408  and  _409
REMARK  173  A    between atoms: _414  and  _415
REMARK  174  A    between atoms: _417  and  _419
REMARK  175  A    between atoms: _419  and  _420
REMARK  176  A    between atoms: _419  and  _422
REMARK  177  A    between atoms: _422  and  _423
REMARK  178  A    between atoms: _426  and  _428
REMARK  179  A    between atoms: _428  and  _429
REMARK  180  A    between atoms: _428  and  _431
REMARK  181  A    between atoms: _431  and  _432
REMARK  182  A    between atoms: _432  and  _433
REMARK  183  A    between atoms: _436  and  _438
REMARK  184  A    between atoms: _438  and  _439
REMARK  185  A    between atoms: _438  and  _441
REMARK  186  A    between atoms: _441  and  _442
REMARK  187  A    between atoms: _442  and  _443
REMARK  188  A    between atoms: _443  and  _444
REMARK  189  A    between atoms: _453  and  _455
REMARK  190  A    between atoms: _455  and  _456
REMARK  191  A    between atoms: _455  and  _458
REMARK  192  A    between atoms: _458  and  _459
REMARK  193  A    between atoms: _464  and  _465
REMARK  194  A    between atoms: _467  and  _469
REMARK  195  A    between atoms: _469  and  _470
REMARK  196  A    between atoms: _469  and  _472
REMARK  197  A    between atoms: _472  and  _473
REMARK  198  A    between atoms: _473  and  _474
REMARK  199  A    between atoms: _474  and  _475
REMARK  200  A    between atoms: _484  and  _486
REMARK  201  A    between atoms: _486  and  _487
REMARK  202  A    between atoms: _486  and  _489
REMARK  203  A    between atoms: _489  and  _490
REMARK  204  A    between atoms: _493  and  _495
REMARK  205  A    between atoms: _495  and  _496
REMARK  206  A    between atoms: _498  and  _500
REMARK  207  A    between atoms: _500  and  _501
REMARK  208  A    between atoms: _500  and  _503
REMARK  209  A    between atoms: _503  and  _504
REMARK  210  A    between atoms: _507  and  _509
REMARK  211  A    between atoms: _509  and  _510
REMARK  212  A    between atoms: _509  and  _512
REMARK  213  A    between atoms: _512  and  _513
REMARK  214  A    between atoms: _518  and  _519
REMARK  215  A    between atoms: _521  and  _523
REMARK  216  A    between atoms: _523  and  _524
REMARK  217  A    between atoms: _523  and  _526
REMARK  218  A    between atoms: _526  and  _527
REMARK  219  A    between atoms: _533  and  _535
REMARK  220  A    between atoms: _535  and  _536
REMARK  221  A    between atoms: _535  and  _538
REMARK  222  A    between atoms: _538  and  _539
REMARK  223  A    between atoms: _545  and  _547
REMARK  224  A    between atoms: _547  and  _548
REMARK  225  A    between atoms: _547  and  _550
REMARK  226  A    between atoms: _550  and  _551
REMARK  227  A    between atoms: _554  and  _556
REMARK  228  A    between atoms: _556  and  _557
REMARK  229  A    between atoms: _556  and  _559
REMARK  230  A    between atoms: _559  and  _560
REMARK                            x       y       z     vdW  Elec       q    Type
REMARK                         _______ _______ _______ _____ _____    ______ ____
ROOT
ATOM      1 MG   UNL     1      -8.026  10.484 122.508  0.00  0.00    +0.000 Mg
ATOM      2  O   UNL     1      -7.638  12.483 122.794  0.00  0.00    +0.000 OA
ATOM      3  O   UNL     1      -8.046   8.440 122.262  0.00  0.00    +0.000 OA
ENDROOT
TORSDOF 0
REMARK  Name = ../refined-set-2016/4rhx/4rhx_pocket.pdb
REMARK  230 active torsions:
REMARK  status: ('A' for Active; 'I' for Inactive)
REMARK    1  A    between atoms: _1  and  _3
REMARK    2  A    between atoms: _3  and  _4
REMARK    3  A    between atoms: _3  and  _6
REMARK    4  A    between atoms: _6  and  _7
REMARK    5  A    between atoms: _10  and  _12
REMARK    6  A    between atoms: _12  and  _13
REMARK    7  A    between atoms: _12  and  _15
REMARK    8  A    between atoms: _18  and  _20
REMARK    9  A    between atoms: _20  and  _21
REMARK   10  A    between atoms: _20  and  _23
REMARK   11  A    between atoms: _23  and  _24
REMARK   12  A    between atoms: _27  and  _29
REMARK   13  A    between atoms: _29  and  _30
REMARK   14  A    between atoms: _29  and  _32
REMARK   15  A    between atoms: _32  and  _33
REMARK   16  A    between atoms: _33  and  _34
REMARK   17  A    between atoms: _34  and  _35
REMARK   18  A    between atoms: _35  and  _36
REMARK   19  A    between atoms: _40  and  _42
REMARK   20  A    between atoms: _42  and  _43
REMARK   21  A    between atoms: _45  and  _47
REMARK   22  A    between atoms: _47  and  _48
REMARK   23  A    between atoms: _51  and  _53
REMARK   24  A    between atoms: _53  and  _54
REMARK   25  A    between atoms: _53  and  _56
REMARK   26  A    between atoms: _59  and  _61
REMARK   27  A    between atoms: _61  and  _62
REMARK   28  A    between atoms: _61  and  _64
REMARK   29  A    between atoms: _64  and  _65
REMARK   30  A    between atoms: _65  and  _66
REMARK   31  A    between atoms: _68  and  _70
REMARK   32  A    between atoms: _70  and  _71
REMARK   33  A    between atoms: _74  and  _76
REMARK   34  A    between atoms: _76  and  _77
REMARK   35  A    between atoms: _76  and  _79
REMARK   36  A    between atoms: _82  and  _84
REMARK   37  A    between atoms: _84  and  _85
REMARK   38  A    between atoms: _84  and  _87
REMARK   39  A    between atoms: _87  and  _88
REMARK   40  A    between atoms: _90  and  _92
REMARK   41  A    between atoms: _92  and  _93
REMARK   42  A    between atoms: _92  and  _95
REMARK   43  A    between atoms: _95  and  _96
REMARK   44  A    between atoms: _98  and  _100
REMARK   45  A    between atoms: _100  and  _101
REMARK   46  A    between atoms: _100  and  _103
REMARK   47  A    between atoms: _103  and  _104
REMARK   48  A    between atoms: _109  and  _110
REMARK   49  A    between atoms: _112  and  _114
REMARK   50  A    between atoms: _114  and  _115
REMARK   51  A    between atoms: _117  and  _119
REMARK   52  A    between atoms: _119  and  _120
REMARK   53  A    between atoms: _119  and  _122
REMARK   54  A    between atoms: _125  and  _127
REMARK   55  A    between atoms: _127  and  _128
REMARK   56  A    between atoms: _127  and  _130
REMARK   57  A    between atoms: _130  and  _131
REMARK   58  A    between atoms: _131  and  _132
REMARK   59  A    between atoms: _132  and  _133
REMARK   60  A    between atoms: _142  and  _144
REMARK   61  A    between atoms: _144  and  _145
REMARK   62  A    between atoms: _144  and  _147
REMARK   63  A    between atoms: _147  and  _148
REMARK   64  A    between atoms: _151  and  _153
REMARK   65  A    between atoms: _153  and  _154
REMARK   66  A    between atoms: _153  and  _156
REMARK   67  A    between atoms: _156  and  _157
REMARK   68  A    between atoms: _157  and  _158
REMARK   69  A    between atoms: _161  and  _163
REMARK   70  A    between atoms: _163  and  _164
REMARK   71  A    between atoms: _163  and  _166
REMARK   72  A    between atoms: _166  and  _167
REMARK   73  A    between atoms: _170  and  _172
REMARK   74  A    between atoms: _172  and  _173
REMARK   75  A    between atoms: _172  and  _175
REMARK   76  A    between atoms: _178  and  _180
REMARK   77  A    between atoms: _180  and  _181
REMARK   78  A    between atoms: _180  and  _183
REMARK   79  A    between atoms: _186  and  _188
REMARK   80  A    between atoms: _188  and  _189
REMARK   81  A    between atoms: _188  and  _191
REMARK   82  A    between atoms: _191  and  _192
REMARK   83  A    between atoms: _195  and  _197
REMARK   84  A    between atoms: _197  and  _198
REMARK   85  A    between atoms: _197  and  _200
REMARK   86  A    between atoms: _200  and  _201
REMARK   87  A    between atoms: _203  and  _205
REMARK   88  A    between atoms: _205  and  _206
REMARK   89  A    between atoms: _208  and  _210
REMARK   90  A    between atoms: _210  and  _211
REMARK   91  A    between atoms: _210  and  _213
REMARK   92  A    between atoms: _213  and  _214
REMARK   93  A    between atoms: _217  and  _219
REMARK   94  A    between atoms: _219  and  _220
REMARK   95  A    between atoms: _219  and  _222
REMARK   96  A    between atoms: _222  and  _223
REMARK   97  A    between atoms: _226  and  _228
REMARK   98  A    between atoms: _228  and  _229
REMARK   99  A    between atoms: _228  and  _231
REMARK  100  A    between atoms: _231  and  _232
REMARK  101  A    between atoms: _235  and  _237
REMARK  102  A    between atoms: _237  and  _238
REMARK  103  A    between atoms: _237  and  _240
REMARK  104  A    between atoms: _240  and  _241
REMARK  105  A    between atoms: _243  and  _245
REMARK  106  A    between atoms: _245  and  _246
REMARK  107  A    between atoms: _245  and  _248
REMARK  108  A    between atoms: _248  and  _249
REMARK  109  A    between atoms: _259  and  _261
REMARK  110  A    between atoms: _261  and  _262
REMARK  111  A    between atoms: _261  and  _264
REMARK  112  A    between atoms: _264  and  _265
REMARK  113  A    between atoms: _268  and  _270
REMARK  114  A    between atoms: _270  and  _271
REMARK  115  A    between atoms: _270  and  _273
REMARK  116  A    between atoms: _273  and  _274
REMARK  117  A    between atoms: _277  and  _279
REMARK  118  A    between atoms: _279  and  _280
REMARK  119  A    between atoms: _279  and  _282
REMARK  120  A    between atoms: _282  and  _283
REMARK  121  A    between atoms: _283  and  _284
REMARK  122  A    between atoms: _284  and  _285
REMARK  123  A    between atoms: _285  and  _286
REMARK  124  A    between atoms: _290  and  _292
REMARK  125  A    between atoms: _292  and  _293
REMARK  126  A    between atoms: _292  and  _295
REMARK  127  A    between atoms: _295  and  _296
REMARK  128  A    between atoms: _299  and  _301
REMARK  129  A    between atoms: _301  and  _302
REMARK  130  A    between atoms: _305  and  _307
REMARK  131  A    between atoms: _307  and  _308
REMARK  132  A    between atoms: _311  and  _313
REMARK  133  A    between atoms: _313  and  _314
REMARK  134  A    between atoms: _313  and  _316
REMARK  135  A    between atoms: _316  and  _317
REMARK  136  A    between atoms: _321  and  _322
REMARK  137  A    between atoms: _327  and  _329
REMARK  138  A    between atoms: _329  and  _330
REMARK  139  A    between atoms: _329  and  _332
REMARK  140  A    between atoms: _332  and  _333
REMARK  141  A    between atoms: _338  and  _340
REMARK  142  A    between atoms: _340  and  _341
REMARK  143  A    between atoms: _340  and  _343
REMARK  144  A    between atoms: _343  and  _344
REMARK  145  A    between atoms: _347  and  _349
REMARK  146  A    between atoms: _349  and  _350
REMARK  147  A    between atoms: _349  and  _352
REMARK  148  A    between atoms: _352  and  _353
REMARK  149  A    between atoms: _359  and  _361
REMARK  150  A    between atoms: _361  and  _362
REMARK  151  A    between atoms: _361  and  _364
REMARK  152  A    between atoms: _367  and  _369
REMARK  153  A    between atoms: _369  and  _370
REMARK  154  A    between atoms: _369  and  _372
REMARK  155  A    between atoms: _375  and  _377
REMARK  156  A    between atoms: _377  and  _378
REMARK  157  A    between atoms: _380  and  _382
REMARK  158  A    between atoms: _382  and  _383
REMARK  159  A    between atoms: _385  and  _387
REMARK  160  A    between atoms: _387  and  _388
REMARK  161  A    between atoms: _387  and  _390
REMARK  162  A    between atoms: _390  and  _391
REMARK  163  A    between atoms: _394  and  _396
REMARK  164  A    between atoms: _396  and  _397
REMARK  165  A    between atoms: _396  and  _399
REMARK  166  A    between atoms: _399  and  _400
REMARK  167  A    between atoms: _400  and  _402
REMARK  168  A    between atoms: _402  and  MG_565
REMARK  169  A    between atoms: _403  and  _405
REMARK  170  A    between atoms: _405  and  _406
REMARK  171  A    between atoms: _405  and  _408
REMARK  172  A    between atoms: _408  and  _409
REMARK  173  A    between atoms: _414  and  _415
REMARK  174  A    between atoms: _417  and  _419
REMARK  175  A    between atoms: _419  and  _420
REMARK  176  A    between atoms: _419  and  _422
REMARK  177  A    between atoms: _422  and  _423
REMARK  178  A    between atoms: _426  and  _428
REMARK  179  A    between atoms: _428  and  _429
REMARK  180  A    between atoms: _428  and  _431
REMARK  181  A    between atoms: _431  and  _432
REMARK  182  A    between atoms: _432  and  _433
REMARK  183  A    between atoms: _436  and  _438
REMARK  184  A    between atoms: _438  and  _439
REMARK  185  A    between atoms: _438  and  _441
REMARK  186  A    between atoms: _441  and  _442
REMARK  187  A    between atoms: _442  and  _443
REMARK  188  A    between atoms: _443  and  _444
REMARK  189  A    between atoms: _453  and  _455
REMARK  190  A    between atoms: _455  and  _456
REMARK  191  A    between atoms: _455  and  _458
REMARK  192  A    between atoms: _458  and  _459
REMARK  193  A    between atoms: _464  and  _465
REMARK  194  A    between atoms: _467  and  _469
REMARK  195  A    between atoms: _469  and  _470
REMARK  196  A    between atoms: _469  and  _472
REMARK  197  A    between atoms: _472  and  _473
REMARK  198  A    between atoms: _473  and  _474
REMARK  199  A    between atoms: _474  and  _475
REMARK  200  A    between atoms: _484  and  _486
REMARK  201  A    between atoms: _486  and  _487
REMARK  202  A    between atoms: _486  and  _489
REMARK  203  A    between atoms: _489  and  _490
REMARK  204  A    between atoms: _493  and  _495
REMARK  205  A    between atoms: _495  and  _496
REMARK  206  A    between atoms: _498  and  _500
REMARK  207  A    between atoms: _500  and  _501
REMARK  208  A    between atoms: _500  and  _503
REMARK  209  A    between atoms: _503  and  _504
REMARK  210  A    between atoms: _507  and  _509
REMARK  211  A    between atoms: _509  and  _510
REMARK  212  A    between atoms: _509  and  _512
REMARK  213  A    between atoms: _512  and  _513
REMARK  214  A    between atoms: _518  and  _519
REMARK  215  A    between atoms: _521  and  _523
REMARK  216  A    between atoms: _523  and  _524
REMARK  217  A    between atoms: _523  and  _526
REMARK  218  A    between atoms: _526  and  _527
REMARK  219  A    between atoms: _533  and  _535
REMARK  220  A    between atoms: _535  and  _536
REMARK  221  A    between atoms: _535  and  _538
REMARK  222  A    between atoms: _538  and  _539
REMARK  223  A    between atoms: _545  and  _547
REMARK  224  A    between atoms: _547  and  _548
REMARK  225  A    between atoms: _547  and  _550
REMARK  226  A    between atoms: _550  and  _551
REMARK  227  A    between atoms: _554  and  _556
REMARK  228  A    between atoms: _556  and  _557
REMARK  229  A    between atoms: _556  and  _559
REMARK  230  A    between atoms: _559  and  _560
REMARK                            x       y       z     vdW  Elec       q    Type
REMARK                         _______ _______ _______ _____ _____    ______ ____
ROOT
ATOM      1  O   HOH     1      -7.259  10.939 120.637  0.00  0.00    +0.000 OA
ENDROOT
TORSDOF 0
REMARK  Name = ../refined-set-2016/4rhx/4rhx_pocket.pdb
REMARK  230 active torsions:
REMARK  status: ('A' for Active; 'I' for Inactive)
REMARK    1  A    between atoms: _1  and  _3
REMARK    2  A    between atoms: _3  and  _4
REMARK    3  A    between atoms: _3  and  _6
REMARK    4  A    between atoms: _6  and  _7
REMARK    5  A    between atoms: _10  and  _12
REMARK    6  A    between atoms: _12  and  _13
REMARK    7  A    between atoms: _12  and  _15
REMARK    8  A    between atoms: _18  and  _20
REMARK    9  A    between atoms: _20  and  _21
REMARK   10  A    between atoms: _20  and  _23
REMARK   11  A    between atoms: _23  and  _24
REMARK   12  A    between atoms: _27  and  _29
REMARK   13  A    between atoms: _29  and  _30
REMARK   14  A    between atoms: _29  and  _32
REMARK   15  A    between atoms: _32  and  _33
REMARK   16  A    between atoms: _33  and  _34
REMARK   17  A    between atoms: _34  and  _35
REMARK   18  A    between atoms: _35  and  _36
REMARK   19  A    between atoms: _40  and  _42
REMARK   20  A    between atoms: _42  and  _43
REMARK   21  A    between atoms: _45  and  _47
REMARK   22  A    between atoms: _47  and  _48
REMARK   23  A    between atoms: _51  and  _53
REMARK   24  A    between atoms: _53  and  _54
REMARK   25  A    between atoms: _53  and  _56
REMARK   26  A    between atoms: _59  and  _61
REMARK   27  A    between atoms: _61  and  _62
REMARK   28  A    between atoms: _61  and  _64
REMARK   29  A    between atoms: _64  and  _65
REMARK   30  A    between atoms: _65  and  _66
REMARK   31  A    between atoms: _68  and  _70
REMARK   32  A    between atoms: _70  and  _71
REMARK   33  A    between atoms: _74  and  _76
REMARK   34  A    between atoms: _76  and  _77
REMARK   35  A    between atoms: _76  and  _79
REMARK   36  A    between atoms: _82  and  _84
REMARK   37  A    between atoms: _84  and  _85
REMARK   38  A    between atoms: _84  and  _87
REMARK   39  A    between atoms: _87  and  _88
REMARK   40  A    between atoms: _90  and  _92
REMARK   41  A    between atoms: _92  and  _93
REMARK   42  A    between atoms: _92  and  _95
REMARK   43  A    between atoms: _95  and  _96
REMARK   44  A    between atoms: _98  and  _100
REMARK   45  A    between atoms: _100  and  _101
REMARK   46  A    between atoms: _100  and  _103
REMARK   47  A    between atoms: _103  and  _104
REMARK   48  A    between atoms: _109  and  _110
REMARK   49  A    between atoms: _112  and  _114
REMARK   50  A    between atoms: _114  and  _115
REMARK   51  A    between atoms: _117  and  _119
REMARK   52  A    between atoms: _119  and  _120
REMARK   53  A    between atoms: _119  and  _122
REMARK   54  A    between atoms: _125  and  _127
REMARK   55  A    between atoms: _127  and  _128
REMARK   56  A    between atoms: _127  and  _130
REMARK   57  A    between atoms: _130  and  _131
REMARK   58  A    between atoms: _131  and  _132
REMARK   59  A    between atoms: _132  and  _133
REMARK   60  A    between atoms: _142  and  _144
REMARK   61  A    between atoms: _144  and  _145
REMARK   62  A    between atoms: _144  and  _147
REMARK   63  A    between atoms: _147  and  _148
REMARK   64  A    between atoms: _151  and  _153
REMARK   65  A    between atoms: _153  and  _154
REMARK   66  A    between atoms: _153  and  _156
REMARK   67  A    between atoms: _156  and  _157
REMARK   68  A    between atoms: _157  and  _158
REMARK   69  A    between atoms: _161  and  _163
REMARK   70  A    between atoms: _163  and  _164
REMARK   71  A    between atoms: _163  and  _166
REMARK   72  A    between atoms: _166  and  _167
REMARK   73  A    between atoms: _170  and  _172
REMARK   74  A    between atoms: _172  and  _173
REMARK   75  A    between atoms: _172  and  _175
REMARK   76  A    between atoms: _178  and  _180
REMARK   77  A    between atoms: _180  and  _181
REMARK   78  A    between atoms: _180  and  _183
REMARK   79  A    between atoms: _186  and  _188
REMARK   80  A    between atoms: _188  and  _189
REMARK   81  A    between atoms: _188  and  _191
REMARK   82  A    between atoms: _191  and  _192
REMARK   83  A    between atoms: _195  and  _197
REMARK   84  A    between atoms: _197  and  _198
REMARK   85  A    between atoms: _197  and  _200
REMARK   86  A    between atoms: _200  and  _201
REMARK   87  A    between atoms: _203  and  _205
REMARK   88  A    between atoms: _205  and  _206
REMARK   89  A    between atoms: _208  and  _210
REMARK   90  A    between atoms: _210  and  _211
REMARK   91  A    between atoms: _210  and  _213
REMARK   92  A    between atoms: _213  and  _214
REMARK   93  A    between atoms: _217  and  _219
REMARK   94  A    between atoms: _219  and  _220
REMARK   95  A    between atoms: _219  and  _222
REMARK   96  A    between atoms: _222  and  _223
REMARK   97  A    between atoms: _226  and  _228
REMARK   98  A    between atoms: _228  and  _229
REMARK   99  A    between atoms: _228  and  _231
REMARK  100  A    between atoms: _231  and  _232
REMARK  101  A    between atoms: _235  and  _237
REMARK  102  A    between atoms: _237  and  _238
REMARK  103  A    between atoms: _237  and  _240
REMARK  104  A    between atoms: _240  and  _241
REMARK  105  A    between atoms: _243  and  _245
REMARK  106  A    between atoms: _245  and  _246
REMARK  107  A    between atoms: _245  and  _248
REMARK  108  A    between atoms: _248  and  _249
REMARK  109  A    between atoms: _259  and  _261
REMARK  110  A    between atoms: _261  and  _262
REMARK  111  A    between atoms: _261  and  _264
REMARK  112  A    between atoms: _264  and  _265
REMARK  113  A    between atoms: _268  and  _270
REMARK  114  A    between atoms: _270  and  _271
REMARK  115  A    between atoms: _270  and  _273
REMARK  116  A    between atoms: _273  and  _274
REMARK  117  A    between atoms: _277  and  _279
REMARK  118  A    between atoms: _279  and  _280
REMARK  119  A    between atoms: _279  and  _282
REMARK  120  A    between atoms: _282  and  _283
REMARK  121  A    between atoms: _283  and  _284
REMARK  122  A    between atoms: _284  and  _285
REMARK  123  A    between atoms: _285  and  _286
REMARK  124  A    between atoms: _290  and  _292
REMARK  125  A    between atoms: _292  and  _293
REMARK  126  A    between atoms: _292  and  _295
REMARK  127  A    between atoms: _295  and  _296
REMARK  128  A    between atoms: _299  and  _301
REMARK  129  A    between atoms: _301  and  _302
REMARK  130  A    between atoms: _305  and  _307
REMARK  131  A    between atoms: _307  and  _308
REMARK  132  A    between atoms: _311  and  _313
REMARK  133  A    between atoms: _313  and  _314
REMARK  134  A    between atoms: _313  and  _316
REMARK  135  A    between atoms: _316  and  _317
REMARK  136  A    between atoms: _321  and  _322
REMARK  137  A    between atoms: _327  and  _329
REMARK  138  A    between atoms: _329  and  _330
REMARK  139  A    between atoms: _329  and  _332
REMARK  140  A    between atoms: _332  and  _333
REMARK  141  A    between atoms: _338  and  _340
REMARK  142  A    between atoms: _340  and  _341
REMARK  143  A    between atoms: _340  and  _343
REMARK  144  A    between atoms: _343  and  _344
REMARK  145  A    between atoms: _347  and  _349
REMARK  146  A    between atoms: _349  and  _350
REMARK  147  A    between atoms: _349  and  _352
REMARK  148  A    between atoms: _352  and  _353
REMARK  149  A    between atoms: _359  and  _361
REMARK  150  A    between atoms: _361  and  _362
REMARK  151  A    between atoms: _361  and  _364
REMARK  152  A    between atoms: _367  and  _369
REMARK  153  A    between atoms: _369  and  _370
REMARK  154  A    between atoms: _369  and  _372
REMARK  155  A    between atoms: _375  and  _377
REMARK  156  A    between atoms: _377  and  _378
REMARK  157  A    between atoms: _380  and  _382
REMARK  158  A    between atoms: _382  and  _383
REMARK  159  A    between atoms: _385  and  _387
REMARK  160  A    between atoms: _387  and  _388
REMARK  161  A    between atoms: _387  and  _390
REMARK  162  A    between atoms: _390  and  _391
REMARK  163  A    between atoms: _394  and  _396
REMARK  164  A    between atoms: _396  and  _397
REMARK  165  A    between atoms: _396  and  _399
REMARK  166  A    between atoms: _399  and  _400
REMARK  167  A    between atoms: _400  and  _402
REMARK  168  A    between atoms: _402  and  MG_565
REMARK  169  A    between atoms: _403  and  _405
REMARK  170  A    between atoms: _405  and  _406
REMARK  171  A    between atoms: _405  and  _408
REMARK  172  A    between atoms: _408  and  _409
REMARK  173  A    between atoms: _414  and  _415
REMARK  174  A    between atoms: _417  and  _419
REMARK  175  A    between atoms: _419  and  _420
REMARK  176  A    between atoms: _419  and  _422
REMARK  177  A    between atoms: _422  and  _423
REMARK  178  A    between atoms: _426  and  _428
REMARK  179  A    between atoms: _428  and  _429
REMARK  180  A    between atoms: _428  and  _431
REMARK  181  A    between atoms: _431  and  _432
REMARK  182  A    between atoms: _432  and  _433
REMARK  183  A    between atoms: _436  and  _438
REMARK  184  A    between atoms: _438  and  _439
REMARK  185  A    between atoms: _438  and  _441
REMARK  186  A    between atoms: _441  and  _442
REMARK  187  A    between atoms: _442  and  _443
REMARK  188  A    between atoms: _443  and  _444
REMARK  189  A    between atoms: _453  and  _455
REMARK  190  A    between atoms: _455  and  _456
REMARK  191  A    between atoms: _455  and  _458
REMARK  192  A    between atoms: _458  and  _459
REMARK  193  A    between atoms: _464  and  _465
REMARK  194  A    between atoms: _467  and  _469
REMARK  195  A    between atoms: _469  and  _470
REMARK  196  A    between atoms: _469  and  _472
REMARK  197  A    between atoms: _472  and  _473
REMARK  198  A    between atoms: _473  and  _474
REMARK  199  A    between atoms: _474  and  _475
REMARK  200  A    between atoms: _484  and  _486
REMARK  201  A    between atoms: _486  and  _487
REMARK  202  A    between atoms: _486  and  _489
REMARK  203  A    between atoms: _489  and  _490
REMARK  204  A    between atoms: _493  and  _495
REMARK  205  A    between atoms: _495  and  _496
REMARK  206  A    between atoms: _498  and  _500
REMARK  207  A    between atoms: _500  and  _501
REMARK  208  A    between atoms: _500  and  _503
REMARK  209  A    between atoms: _503  and  _504
REMARK  210  A    between atoms: _507  and  _509
REMARK  211  A    between atoms: _509  and  _510
REMARK  212  A    between atoms: _509  and  _512
REMARK  213  A    between atoms: _512  and  _513
REMARK  214  A    between atoms: _518  and  _519
REMARK  215  A    between atoms: _521  and  _523
REMARK  216  A    between atoms: _523  and  _524
REMARK  217  A    between atoms: _523  and  _526
REMARK  218  A    between atoms: _526  and  _527
REMARK  219  A    between atoms: _533  and  _535
REMARK  220  A    between atoms: _535  and  _536
REMARK  221  A    between atoms: _535  and  _538
REMARK  222  A    between atoms: _538  and  _539
REMARK  223  A    between atoms: _545  and  _547
REMARK  224  A    between atoms: _547  and  _548
REMARK  225  A    between atoms: _547  and  _550
REMARK  226  A    between atoms: _550  and  _551
REMARK  227  A    between atoms: _554  and  _556
REMARK  228  A    between atoms: _556  and  _557
REMARK  229  A    between atoms: _556  and  _559
REMARK  230  A    between atoms: _559  and  _560
REMARK                            x       y       z     vdW  Elec       q    Type
REMARK                         _______ _______ _______ _____ _____    ______ ____
ROOT
ATOM      1  O   HOH     1      -6.419  10.113 123.776  0.00  0.00    +0.000 OA
ENDROOT
TORSDOF 0
REMARK  Name = ../refined-set-2016/4rhx/4rhx_pocket.pdb
REMARK  230 active torsions:
REMARK  status: ('A' for Active; 'I' for Inactive)
REMARK    1  A    between atoms: _1  and  _3
REMARK    2  A    between atoms: _3  and  _4
REMARK    3  A    between atoms: _3  and  _6
REMARK    4  A    between atoms: _6  and  _7
REMARK    5  A    between atoms: _10  and  _12
REMARK    6  A    between atoms: _12  and  _13
REMARK    7  A    between atoms: _12  and  _15
REMARK    8  A    between atoms: _18  and  _20
REMARK    9  A    between atoms: _20  and  _21
REMARK   10  A    between atoms: _20  and  _23
REMARK   11  A    between atoms: _23  and  _24
REMARK   12  A    between atoms: _27  and  _29
REMARK   13  A    between atoms: _29  and  _30
REMARK   14  A    between atoms: _29  and  _32
REMARK   15  A    between atoms: _32  and  _33
REMARK   16  A    between atoms: _33  and  _34
REMARK   17  A    between atoms: _34  and  _35
REMARK   18  A    between atoms: _35  and  _36
REMARK   19  A    between atoms: _40  and  _42
REMARK   20  A    between atoms: _42  and  _43
REMARK   21  A    between atoms: _45  and  _47
REMARK   22  A    between atoms: _47  and  _48
REMARK   23  A    between atoms: _51  and  _53
REMARK   24  A    between atoms: _53  and  _54
REMARK   25  A    between atoms: _53  and  _56
REMARK   26  A    between atoms: _59  and  _61
REMARK   27  A    between atoms: _61  and  _62
REMARK   28  A    between atoms: _61  and  _64
REMARK   29  A    between atoms: _64  and  _65
REMARK   30  A    between atoms: _65  and  _66
REMARK   31  A    between atoms: _68  and  _70
REMARK   32  A    between atoms: _70  and  _71
REMARK   33  A    between atoms: _74  and  _76
REMARK   34  A    between atoms: _76  and  _77
REMARK   35  A    between atoms: _76  and  _79
REMARK   36  A    between atoms: _82  and  _84
REMARK   37  A    between atoms: _84  and  _85
REMARK   38  A    between atoms: _84  and  _87
REMARK   39  A    between atoms: _87  and  _88
REMARK   40  A    between atoms: _90  and  _92
REMARK   41  A    between atoms: _92  and  _93
REMARK   42  A    between atoms: _92  and  _95
REMARK   43  A    between atoms: _95  and  _96
REMARK   44  A    between atoms: _98  and  _100
REMARK   45  A    between atoms: _100  and  _101
REMARK   46  A    between atoms: _100  and  _103
REMARK   47  A    between atoms: _103  and  _104
REMARK   48  A    between atoms: _109  and  _110
REMARK   49  A    between atoms: _112  and  _114
REMARK   50  A    between atoms: _114  and  _115
REMARK   51  A    between atoms: _117  and  _119
REMARK   52  A    between atoms: _119  and  _120
REMARK   53  A    between atoms: _119  and  _122
REMARK   54  A    between atoms: _125  and  _127
REMARK   55  A    between atoms: _127  and  _128
REMARK   56  A    between atoms: _127  and  _130
REMARK   57  A    between atoms: _130  and  _131
REMARK   58  A    between atoms: _131  and  _132
REMARK   59  A    between atoms: _132  and  _133
REMARK   60  A    between atoms: _142  and  _144
REMARK   61  A    between atoms: _144  and  _145
REMARK   62  A    between atoms: _144  and  _147
REMARK   63  A    between atoms: _147  and  _148
REMARK   64  A    between atoms: _151  and  _153
REMARK   65  A    between atoms: _153  and  _154
REMARK   66  A    between atoms: _153  and  _156
REMARK   67  A    between atoms: _156  and  _157
REMARK   68  A    between atoms: _157  and  _158
REMARK   69  A    between atoms: _161  and  _163
REMARK   70  A    between atoms: _163  and  _164
REMARK   71  A    between atoms: _163  and  _166
REMARK   72  A    between atoms: _166  and  _167
REMARK   73  A    between atoms: _170  and  _172
REMARK   74  A    between atoms: _172  and  _173
REMARK   75  A    between atoms: _172  and  _175
REMARK   76  A    between atoms: _178  and  _180
REMARK   77  A    between atoms: _180  and  _181
REMARK   78  A    between atoms: _180  and  _183
REMARK   79  A    between atoms: _186  and  _188
REMARK   80  A    between atoms: _188  and  _189
REMARK   81  A    between atoms: _188  and  _191
REMARK   82  A    between atoms: _191  and  _192
REMARK   83  A    between atoms: _195  and  _197
REMARK   84  A    between atoms: _197  and  _198
REMARK   85  A    between atoms: _197  and  _200
REMARK   86  A    between atoms: _200  and  _201
REMARK   87  A    between atoms: _203  and  _205
REMARK   88  A    between atoms: _205  and  _206
REMARK   89  A    between atoms: _208  and  _210
REMARK   90  A    between atoms: _210  and  _211
REMARK   91  A    between atoms: _210  and  _213
REMARK   92  A    between atoms: _213  and  _214
REMARK   93  A    between atoms: _217  and  _219
REMARK   94  A    between atoms: _219  and  _220
REMARK   95  A    between atoms: _219  and  _222
REMARK   96  A    between atoms: _222  and  _223
REMARK   97  A    between atoms: _226  and  _228
REMARK   98  A    between atoms: _228  and  _229
REMARK   99  A    between atoms: _228  and  _231
REMARK  100  A    between atoms: _231  and  _232
REMARK  101  A    between atoms: _235  and  _237
REMARK  102  A    between atoms: _237  and  _238
REMARK  103  A    between atoms: _237  and  _240
REMARK  104  A    between atoms: _240  and  _241
REMARK  105  A    between atoms: _243  and  _245
REMARK  106  A    between atoms: _245  and  _246
REMARK  107  A    between atoms: _245  and  _248
REMARK  108  A    between atoms: _248  and  _249
REMARK  109  A    between atoms: _259  and  _261
REMARK  110  A    between atoms: _261  and  _262
REMARK  111  A    between atoms: _261  and  _264
REMARK  112  A    between atoms: _264  and  _265
REMARK  113  A    between atoms: _268  and  _270
REMARK  114  A    between atoms: _270  and  _271
REMARK  115  A    between atoms: _270  and  _273
REMARK  116  A    between atoms: _273  and  _274
REMARK  117  A    between atoms: _277  and  _279
REMARK  118  A    between atoms: _279  and  _280
REMARK  119  A    between atoms: _279  and  _282
REMARK  120  A    between atoms: _282  and  _283
REMARK  121  A    between atoms: _283  and  _284
REMARK  122  A    between atoms: _284  and  _285
REMARK  123  A    between atoms: _285  and  _286
REMARK  124  A    between atoms: _290  and  _292
REMARK  125  A    between atoms: _292  and  _293
REMARK  126  A    between atoms: _292  and  _295
REMARK  127  A    between atoms: _295  and  _296
REMARK  128  A    between atoms: _299  and  _301
REMARK  129  A    between atoms: _301  and  _302
REMARK  130  A    between atoms: _305  and  _307
REMARK  131  A    between atoms: _307  and  _308
REMARK  132  A    between atoms: _311  and  _313
REMARK  133  A    between atoms: _313  and  _314
REMARK  134  A    between atoms: _313  and  _316
REMARK  135  A    between atoms: _316  and  _317
REMARK  136  A    between atoms: _321  and  _322
REMARK  137  A    between atoms: _327  and  _329
REMARK  138  A    between atoms: _329  and  _330
REMARK  139  A    between atoms: _329  and  _332
REMARK  140  A    between atoms: _332  and  _333
REMARK  141  A    between atoms: _338  and  _340
REMARK  142  A    between atoms: _340  and  _341
REMARK  143  A    between atoms: _340  and  _343
REMARK  144  A    between atoms: _343  and  _344
REMARK  145  A    between atoms: _347  and  _349
REMARK  146  A    between atoms: _349  and  _350
REMARK  147  A    between atoms: _349  and  _352
REMARK  148  A    between atoms: _352  and  _353
REMARK  149  A    between atoms: _359  and  _361
REMARK  150  A    between atoms: _361  and  _362
REMARK  151  A    between atoms: _361  and  _364
REMARK  152  A    between atoms: _367  and  _369
REMARK  153  A    between atoms: _369  and  _370
REMARK  154  A    between atoms: _369  and  _372
REMARK  155  A    between atoms: _375  and  _377
REMARK  156  A    between atoms: _377  and  _378
REMARK  157  A    between atoms: _380  and  _382
REMARK  158  A    between atoms: _382  and  _383
REMARK  159  A    between atoms: _385  and  _387
REMARK  160  A    between atoms: _387  and  _388
REMARK  161  A    between atoms: _387  and  _390
REMARK  162  A    between atoms: _390  and  _391
REMARK  163  A    between atoms: _394  and  _396
REMARK  164  A    between atoms: _396  and  _397
REMARK  165  A    between atoms: _396  and  _399
REMARK  166  A    between atoms: _399  and  _400
REMARK  167  A    between atoms: _400  and  _402
REMARK  168  A    between atoms: _402  and  MG_565
REMARK  169  A    between atoms: _403  and  _405
REMARK  170  A    between atoms: _405  and  _406
REMARK  171  A    between atoms: _405  and  _408
REMARK  172  A    between atoms: _408  and  _409
REMARK  173  A    between atoms: _414  and  _415
REMARK  174  A    between atoms: _417  and  _419
REMARK  175  A    between atoms: _419  and  _420
REMARK  176  A    between atoms: _419  and  _422
REMARK  177  A    between atoms: _422  and  _423
REMARK  178  A    between atoms: _426  and  _428
REMARK  179  A    between atoms: _428  and  _429
REMARK  180  A    between atoms: _428  and  _431
REMARK  181  A    between atoms: _431  and  _432
REMARK  182  A    between atoms: _432  and  _433
REMARK  183  A    between atoms: _436  and  _438
REMARK  184  A    between atoms: _438  and  _439
REMARK  185  A    between atoms: _438  and  _441
REMARK  186  A    between atoms: _441  and  _442
REMARK  187  A    between atoms: _442  and  _443
REMARK  188  A    between atoms: _443  and  _444
REMARK  189  A    between atoms: _453  and  _455
REMARK  190  A    between atoms: _455  and  _456
REMARK  191  A    between atoms: _455  and  _458
REMARK  192  A    between atoms: _458  and  _459
REMARK  193  A    between atoms: _464  and  _465
REMARK  194  A    between atoms: _467  and  _469
REMARK  195  A    between atoms: _469  and  _470
REMARK  196  A    between atoms: _469  and  _472
REMARK  197  A    between atoms: _472  and  _473
REMARK  198  A    between atoms: _473  and  _474
REMARK  199  A    between atoms: _474  and  _475
REMARK  200  A    between atoms: _484  and  _486
REMARK  201  A    between atoms: _486  and  _487
REMARK  202  A    between atoms: _486  and  _489
REMARK  203  A    between atoms: _489  and  _490
REMARK  204  A    between atoms: _493  and  _495
REMARK  205  A    between atoms: _495  and  _496
REMARK  206  A    between atoms: _498  and  _500
REMARK  207  A    between atoms: _500  and  _501
REMARK  208  A    between atoms: _500  and  _503
REMARK  209  A    between atoms: _503  and  _504
REMARK  210  A    between atoms: _507  and  _509
REMARK  211  A    between atoms: _509  and  _510
REMARK  212  A    between atoms: _509  and  _512
REMARK  213  A    between atoms: _512  and  _513
REMARK  214  A    between atoms: _518  and  _519
REMARK  215  A    between atoms: _521  and  _523
REMARK  216  A    between atoms: _523  and  _524
REMARK  217  A    between atoms: _523  and  _526
REMARK  218  A    between atoms: _526  and  _527
REMARK  219  A    between atoms: _533  and  _535
REMARK  220  A    between atoms: _535  and  _536
REMARK  221  A    between atoms: _535  and  _538
REMARK  222  A    between atoms: _538  and  _539
REMARK  223  A    between atoms: _545  and  _547
REMARK  224  A    between atoms: _547  and  _548
REMARK  225  A    between atoms: _547  and  _550
REMARK  226  A    between atoms: _550  and  _551
REMARK  227  A    between atoms: _554  and  _556
REMARK  228  A    between atoms: _556  and  _557
REMARK  229  A    between atoms: _556  and  _559
REMARK  230  A    between atoms: _559  and  _560
REMARK                            x       y       z     vdW  Elec       q    Type
REMARK                         _______ _______ _______ _____ _____    ______ ____
ROOT
ATOM      1  O   HOH     1      -3.749  10.018 125.968  0.00  0.00    +0.000 OA
ENDROOT
TORSDOF 0
REMARK  Name = ../refined-set-2016/4rhx/4rhx_pocket.pdb
REMARK  230 active torsions:
REMARK  status: ('A' for Active; 'I' for Inactive)
REMARK    1  A    between atoms: _1  and  _3
REMARK    2  A    between atoms: _3  and  _4
REMARK    3  A    between atoms: _3  and  _6
REMARK    4  A    between atoms: _6  and  _7
REMARK    5  A    between atoms: _10  and  _12
REMARK    6  A    between atoms: _12  and  _13
REMARK    7  A    between atoms: _12  and  _15
REMARK    8  A    between atoms: _18  and  _20
REMARK    9  A    between atoms: _20  and  _21
REMARK   10  A    between atoms: _20  and  _23
REMARK   11  A    between atoms: _23  and  _24
REMARK   12  A    between atoms: _27  and  _29
REMARK   13  A    between atoms: _29  and  _30
REMARK   14  A    between atoms: _29  and  _32
REMARK   15  A    between atoms: _32  and  _33
REMARK   16  A    between atoms: _33  and  _34
REMARK   17  A    between atoms: _34  and  _35
REMARK   18  A    between atoms: _35  and  _36
REMARK   19  A    between atoms: _40  and  _42
REMARK   20  A    between atoms: _42  and  _43
REMARK   21  A    between atoms: _45  and  _47
REMARK   22  A    between atoms: _47  and  _48
REMARK   23  A    between atoms: _51  and  _53
REMARK   24  A    between atoms: _53  and  _54
REMARK   25  A    between atoms: _53  and  _56
REMARK   26  A    between atoms: _59  and  _61
REMARK   27  A    between atoms: _61  and  _62
REMARK   28  A    between atoms: _61  and  _64
REMARK   29  A    between atoms: _64  and  _65
REMARK   30  A    between atoms: _65  and  _66
REMARK   31  A    between atoms: _68  and  _70
REMARK   32  A    between atoms: _70  and  _71
REMARK   33  A    between atoms: _74  and  _76
REMARK   34  A    between atoms: _76  and  _77
REMARK   35  A    between atoms: _76  and  _79
REMARK   36  A    between atoms: _82  and  _84
REMARK   37  A    between atoms: _84  and  _85
REMARK   38  A    between atoms: _84  and  _87
REMARK   39  A    between atoms: _87  and  _88
REMARK   40  A    between atoms: _90  and  _92
REMARK   41  A    between atoms: _92  and  _93
REMARK   42  A    between atoms: _92  and  _95
REMARK   43  A    between atoms: _95  and  _96
REMARK   44  A    between atoms: _98  and  _100
REMARK   45  A    between atoms: _100  and  _101
REMARK   46  A    between atoms: _100  and  _103
REMARK   47  A    between atoms: _103  and  _104
REMARK   48  A    between atoms: _109  and  _110
REMARK   49  A    between atoms: _112  and  _114
REMARK   50  A    between atoms: _114  and  _115
REMARK   51  A    between atoms: _117  and  _119
REMARK   52  A    between atoms: _119  and  _120
REMARK   53  A    between atoms: _119  and  _122
REMARK   54  A    between atoms: _125  and  _127
REMARK   55  A    between atoms: _127  and  _128
REMARK   56  A    between atoms: _127  and  _130
REMARK   57  A    between atoms: _130  and  _131
REMARK   58  A    between atoms: _131  and  _132
REMARK   59  A    between atoms: _132  and  _133
REMARK   60  A    between atoms: _142  and  _144
REMARK   61  A    between atoms: _144  and  _145
REMARK   62  A    between atoms: _144  and  _147
REMARK   63  A    between atoms: _147  and  _148
REMARK   64  A    between atoms: _151  and  _153
REMARK   65  A    between atoms: _153  and  _154
REMARK   66  A    between atoms: _153  and  _156
REMARK   67  A    between atoms: _156  and  _157
REMARK   68  A    between atoms: _157  and  _158
REMARK   69  A    between atoms: _161  and  _163
REMARK   70  A    between atoms: _163  and  _164
REMARK   71  A    between atoms: _163  and  _166
REMARK   72  A    between atoms: _166  and  _167
REMARK   73  A    between atoms: _170  and  _172
REMARK   74  A    between atoms: _172  and  _173
REMARK   75  A    between atoms: _172  and  _175
REMARK   76  A    between atoms: _178  and  _180
REMARK   77  A    between atoms: _180  and  _181
REMARK   78  A    between atoms: _180  and  _183
REMARK   79  A    between atoms: _186  and  _188
REMARK   80  A    between atoms: _188  and  _189
REMARK   81  A    between atoms: _188  and  _191
REMARK   82  A    between atoms: _191  and  _192
REMARK   83  A    between atoms: _195  and  _197
REMARK   84  A    between atoms: _197  and  _198
REMARK   85  A    between atoms: _197  and  _200
REMARK   86  A    between atoms: _200  and  _201
REMARK   87  A    between atoms: _203  and  _205
REMARK   88  A    between atoms: _205  and  _206
REMARK   89  A    between atoms: _208  and  _210
REMARK   90  A    between atoms: _210  and  _211
REMARK   91  A    between atoms: _210  and  _213
REMARK   92  A    between atoms: _213  and  _214
REMARK   93  A    between atoms: _217  and  _219
REMARK   94  A    between atoms: _219  and  _220
REMARK   95  A    between atoms: _219  and  _222
REMARK   96  A    between atoms: _222  and  _223
REMARK   97  A    between atoms: _226  and  _228
REMARK   98  A    between atoms: _228  and  _229
REMARK   99  A    between atoms: _228  and  _231
REMARK  100  A    between atoms: _231  and  _232
REMARK  101  A    between atoms: _235  and  _237
REMARK  102  A    between atoms: _237  and  _238
REMARK  103  A    between atoms: _237  and  _240
REMARK  104  A    between atoms: _240  and  _241
REMARK  105  A    between atoms: _243  and  _245
REMARK  106  A    between atoms: _245  and  _246
REMARK  107  A    between atoms: _245  and  _248
REMARK  108  A    between atoms: _248  and  _249
REMARK  109  A    between atoms: _259  and  _261
REMARK  110  A    between atoms: _261  and  _262
REMARK  111  A    between atoms: _261  and  _264
REMARK  112  A    between atoms: _264  and  _265
REMARK  113  A    between atoms: _268  and  _270
REMARK  114  A    between atoms: _270  and  _271
REMARK  115  A    between atoms: _270  and  _273
REMARK  116  A    between atoms: _273  and  _274
REMARK  117  A    between atoms: _277  and  _279
REMARK  118  A    between atoms: _279  and  _280
REMARK  119  A    between atoms: _279  and  _282
REMARK  120  A    between atoms: _282  and  _283
REMARK  121  A    between atoms: _283  and  _284
REMARK  122  A    between atoms: _284  and  _285
REMARK  123  A    between atoms: _285  and  _286
REMARK  124  A    between atoms: _290  and  _292
REMARK  125  A    between atoms: _292  and  _293
REMARK  126  A    between atoms: _292  and  _295
REMARK  127  A    between atoms: _295  and  _296
REMARK  128  A    between atoms: _299  and  _301
REMARK  129  A    between atoms: _301  and  _302
REMARK  130  A    between atoms: _305  and  _307
REMARK  131  A    between atoms: _307  and  _308
REMARK  132  A    between atoms: _311  and  _313
REMARK  133  A    between atoms: _313  and  _314
REMARK  134  A    between atoms: _313  and  _316
REMARK  135  A    between atoms: _316  and  _317
REMARK  136  A    between atoms: _321  and  _322
REMARK  137  A    between atoms: _327  and  _329
REMARK  138  A    between atoms: _329  and  _330
REMARK  139  A    between atoms: _329  and  _332
REMARK  140  A    between atoms: _332  and  _333
REMARK  141  A    between atoms: _338  and  _340
REMARK  142  A    between atoms: _340  and  _341
REMARK  143  A    between atoms: _340  and  _343
REMARK  144  A    between atoms: _343  and  _344
REMARK  145  A    between atoms: _347  and  _349
REMARK  146  A    between atoms: _349  and  _350
REMARK  147  A    between atoms: _349  and  _352
REMARK  148  A    between atoms: _352  and  _353
REMARK  149  A    between atoms: _359  and  _361
REMARK  150  A    between atoms: _361  and  _362
REMARK  151  A    between atoms: _361  and  _364
REMARK  152  A    between atoms: _367  and  _369
REMARK  153  A    between atoms: _369  and  _370
REMARK  154  A    between atoms: _369  and  _372
REMARK  155  A    between atoms: _375  and  _377
REMARK  156  A    between atoms: _377  and  _378
REMARK  157  A    between atoms: _380  and  _382
REMARK  158  A    between atoms: _382  and  _383
REMARK  159  A    between atoms: _385  and  _387
REMARK  160  A    between atoms: _387  and  _388
REMARK  161  A    between atoms: _387  and  _390
REMARK  162  A    between atoms: _390  and  _391
REMARK  163  A    between atoms: _394  and  _396
REMARK  164  A    between atoms: _396  and  _397
REMARK  165  A    between atoms: _396  and  _399
REMARK  166  A    between atoms: _399  and  _400
REMARK  167  A    between atoms: _400  and  _402
REMARK  168  A    between atoms: _402  and  MG_565
REMARK  169  A    between atoms: _403  and  _405
REMARK  170  A    between atoms: _405  and  _406
REMARK  171  A    between atoms: _405  and  _408
REMARK  172  A    between atoms: _408  and  _409
REMARK  173  A    between atoms: _414  and  _415
REMARK  174  A    between atoms: _417  and  _419
REMARK  175  A    between atoms: _419  and  _420
REMARK  176  A    between atoms: _419  and  _422
REMARK  177  A    between atoms: _422  and  _423
REMARK  178  A    between atoms: _426  and  _428
REMARK  179  A    between atoms: _428  and  _429
REMARK  180  A    between atoms: _428  and  _431
REMARK  181  A    between atoms: _431  and  _432
REMARK  182  A    between atoms: _432  and  _433
REMARK  183  A    between atoms: _436  and  _438
REMARK  184  A    between atoms: _438  and  _439
REMARK  185  A    between atoms: _438  and  _441
REMARK  186  A    between atoms: _441  and  _442
REMARK  187  A    between atoms: _442  and  _443
REMARK  188  A    between atoms: _443  and  _444
REMARK  189  A    between atoms: _453  and  _455
REMARK  190  A    between atoms: _455  and  _456
REMARK  191  A    between atoms: _455  and  _458
REMARK  192  A    between atoms: _458  and  _459
REMARK  193  A    between atoms: _464  and  _465
REMARK  194  A    between atoms: _467  and  _469
REMARK  195  A    between atoms: _469  and  _470
REMARK  196  A    between atoms: _469  and  _472
REMARK  197  A    between atoms: _472  and  _473
REMARK  198  A    between atoms: _473  and  _474
REMARK  199  A    between atoms: _474  and  _475
REMARK  200  A    between atoms: _484  and  _486
REMARK  201  A    between atoms: _486  and  _487
REMARK  202  A    between atoms: _486  and  _489
REMARK  203  A    between atoms: _489  and  _490
REMARK  204  A    between atoms: _493  and  _495
REMARK  205  A    between atoms: _495  and  _496
REMARK  206  A    between atoms: _498  and  _500
REMARK  207  A    between atoms: _500  and  _501
REMARK  208  A    between atoms: _500  and  _503
REMARK  209  A    between atoms: _503  and  _504
REMARK  210  A    between atoms: _507  and  _509
REMARK  211  A    between atoms: _509  and  _510
REMARK  212  A    between atoms: _509  and  _512
REMARK  213  A    between atoms: _512  and  _513
REMARK  214  A    between atoms: _518  and  _519
REMARK  215  A    between atoms: _521  and  _523
REMARK  216  A    between atoms: _523  and  _524
REMARK  217  A    between atoms: _523  and  _526
REMARK  218  A    between atoms: _526  and  _527
REMARK  219  A    between atoms: _533  and  _535
REMARK  220  A    between atoms: _535  and  _536
REMARK  221  A    between atoms: _535  and  _538
REMARK  222  A    between atoms: _538  and  _539
REMARK  223  A    between atoms: _545  and  _547
REMARK  224  A    between atoms: _547  and  _548
REMARK  225  A    between atoms: _547  and  _550
REMARK  226  A    between atoms: _550  and  _551
REMARK  227  A    between atoms: _554  and  _556
REMARK  228  A    between atoms: _556  and  _557
REMARK  229  A    between atoms: _556  and  _559
REMARK  230  A    between atoms: _559  and  _560
REMARK                            x       y       z     vdW  Elec       q    Type
REMARK                         _______ _______ _______ _____ _____    ______ ____
ROOT
ATOM      1  O   HOH     1      -4.966   6.903 118.421  0.00  0.00    +0.000 OA
ENDROOT
TORSDOF 0
REMARK  Name = ../refined-set-2016/4rhx/4rhx_pocket.pdb
REMARK  230 active torsions:
REMARK  status: ('A' for Active; 'I' for Inactive)
REMARK    1  A    between atoms: _1  and  _3
REMARK    2  A    between atoms: _3  and  _4
REMARK    3  A    between atoms: _3  and  _6
REMARK    4  A    between atoms: _6  and  _7
REMARK    5  A    between atoms: _10  and  _12
REMARK    6  A    between atoms: _12  and  _13
REMARK    7  A    between atoms: _12  and  _15
REMARK    8  A    between atoms: _18  and  _20
REMARK    9  A    between atoms: _20  and  _21
REMARK   10  A    between atoms: _20  and  _23
REMARK   11  A    between atoms: _23  and  _24
REMARK   12  A    between atoms: _27  and  _29
REMARK   13  A    between atoms: _29  and  _30
REMARK   14  A    between atoms: _29  and  _32
REMARK   15  A    between atoms: _32  and  _33
REMARK   16  A    between atoms: _33  and  _34
REMARK   17  A    between atoms: _34  and  _35
REMARK   18  A    between atoms: _35  and  _36
REMARK   19  A    between atoms: _40  and  _42
REMARK   20  A    between atoms: _42  and  _43
REMARK   21  A    between atoms: _45  and  _47
REMARK   22  A    between atoms: _47  and  _48
REMARK   23  A    between atoms: _51  and  _53
REMARK   24  A    between atoms: _53  and  _54
REMARK   25  A    between atoms: _53  and  _56
REMARK   26  A    between atoms: _59  and  _61
REMARK   27  A    between atoms: _61  and  _62
REMARK   28  A    between atoms: _61  and  _64
REMARK   29  A    between atoms: _64  and  _65
REMARK   30  A    between atoms: _65  and  _66
REMARK   31  A    between atoms: _68  and  _70
REMARK   32  A    between atoms: _70  and  _71
REMARK   33  A    between atoms: _74  and  _76
REMARK   34  A    between atoms: _76  and  _77
REMARK   35  A    between atoms: _76  and  _79
REMARK   36  A    between atoms: _82  and  _84
REMARK   37  A    between atoms: _84  and  _85
REMARK   38  A    between atoms: _84  and  _87
REMARK   39  A    between atoms: _87  and  _88
REMARK   40  A    between atoms: _90  and  _92
REMARK   41  A    between atoms: _92  and  _93
REMARK   42  A    between atoms: _92  and  _95
REMARK   43  A    between atoms: _95  and  _96
REMARK   44  A    between atoms: _98  and  _100
REMARK   45  A    between atoms: _100  and  _101
REMARK   46  A    between atoms: _100  and  _103
REMARK   47  A    between atoms: _103  and  _104
REMARK   48  A    between atoms: _109  and  _110
REMARK   49  A    between atoms: _112  and  _114
REMARK   50  A    between atoms: _114  and  _115
REMARK   51  A    between atoms: _117  and  _119
REMARK   52  A    between atoms: _119  and  _120
REMARK   53  A    between atoms: _119  and  _122
REMARK   54  A    between atoms: _125  and  _127
REMARK   55  A    between atoms: _127  and  _128
REMARK   56  A    between atoms: _127  and  _130
REMARK   57  A    between atoms: _130  and  _131
REMARK   58  A    between atoms: _131  and  _132
REMARK   59  A    between atoms: _132  and  _133
REMARK   60  A    between atoms: _142  and  _144
REMARK   61  A    between atoms: _144  and  _145
REMARK   62  A    between atoms: _144  and  _147
REMARK   63  A    between atoms: _147  and  _148
REMARK   64  A    between atoms: _151  and  _153
REMARK   65  A    between atoms: _153  and  _154
REMARK   66  A    between atoms: _153  and  _156
REMARK   67  A    between atoms: _156  and  _157
REMARK   68  A    between atoms: _157  and  _158
REMARK   69  A    between atoms: _161  and  _163
REMARK   70  A    between atoms: _163  and  _164
REMARK   71  A    between atoms: _163  and  _166
REMARK   72  A    between atoms: _166  and  _167
REMARK   73  A    between atoms: _170  and  _172
REMARK   74  A    between atoms: _172  and  _173
REMARK   75  A    between atoms: _172  and  _175
REMARK   76  A    between atoms: _178  and  _180
REMARK   77  A    between atoms: _180  and  _181
REMARK   78  A    between atoms: _180  and  _183
REMARK   79  A    between atoms: _186  and  _188
REMARK   80  A    between atoms: _188  and  _189
REMARK   81  A    between atoms: _188  and  _191
REMARK   82  A    between atoms: _191  and  _192
REMARK   83  A    between atoms: _195  and  _197
REMARK   84  A    between atoms: _197  and  _198
REMARK   85  A    between atoms: _197  and  _200
REMARK   86  A    between atoms: _200  and  _201
REMARK   87  A    between atoms: _203  and  _205
REMARK   88  A    between atoms: _205  and  _206
REMARK   89  A    between atoms: _208  and  _210
REMARK   90  A    between atoms: _210  and  _211
REMARK   91  A    between atoms: _210  and  _213
REMARK   92  A    between atoms: _213  and  _214
REMARK   93  A    between atoms: _217  and  _219
REMARK   94  A    between atoms: _219  and  _220
REMARK   95  A    between atoms: _219  and  _222
REMARK   96  A    between atoms: _222  and  _223
REMARK   97  A    between atoms: _226  and  _228
REMARK   98  A    between atoms: _228  and  _229
REMARK   99  A    between atoms: _228  and  _231
REMARK  100  A    between atoms: _231  and  _232
REMARK  101  A    between atoms: _235  and  _237
REMARK  102  A    between atoms: _237  and  _238
REMARK  103  A    between atoms: _237  and  _240
REMARK  104  A    between atoms: _240  and  _241
REMARK  105  A    between atoms: _243  and  _245
REMARK  106  A    between atoms: _245  and  _246
REMARK  107  A    between atoms: _245  and  _248
REMARK  108  A    between atoms: _248  and  _249
REMARK  109  A    between atoms: _259  and  _261
REMARK  110  A    between atoms: _261  and  _262
REMARK  111  A    between atoms: _261  and  _264
REMARK  112  A    between atoms: _264  and  _265
REMARK  113  A    between atoms: _268  and  _270
REMARK  114  A    between atoms: _270  and  _271
REMARK  115  A    between atoms: _270  and  _273
REMARK  116  A    between atoms: _273  and  _274
REMARK  117  A    between atoms: _277  and  _279
REMARK  118  A    between atoms: _279  and  _280
REMARK  119  A    between atoms: _279  and  _282
REMARK  120  A    between atoms: _282  and  _283
REMARK  121  A    between atoms: _283  and  _284
REMARK  122  A    between atoms: _284  and  _285
REMARK  123  A    between atoms: _285  and  _286
REMARK  124  A    between atoms: _290  and  _292
REMARK  125  A    between atoms: _292  and  _293
REMARK  126  A    between atoms: _292  and  _295
REMARK  127  A    between atoms: _295  and  _296
REMARK  128  A    between atoms: _299  and  _301
REMARK  129  A    between atoms: _301  and  _302
REMARK  130  A    between atoms: _305  and  _307
REMARK  131  A    between atoms: _307  and  _308
REMARK  132  A    between atoms: _311  and  _313
REMARK  133  A    between atoms: _313  and  _314
REMARK  134  A    between atoms: _313  and  _316
REMARK  135  A    between atoms: _316  and  _317
REMARK  136  A    between atoms: _321  and  _322
REMARK  137  A    between atoms: _327  and  _329
REMARK  138  A    between atoms: _329  and  _330
REMARK  139  A    between atoms: _329  and  _332
REMARK  140  A    between atoms: _332  and  _333
REMARK  141  A    between atoms: _338  and  _340
REMARK  142  A    between atoms: _340  and  _341
REMARK  143  A    between atoms: _340  and  _343
REMARK  144  A    between atoms: _343  and  _344
REMARK  145  A    between atoms: _347  and  _349
REMARK  146  A    between atoms: _349  and  _350
REMARK  147  A    between atoms: _349  and  _352
REMARK  148  A    between atoms: _352  and  _353
REMARK  149  A    between atoms: _359  and  _361
REMARK  150  A    between atoms: _361  and  _362
REMARK  151  A    between atoms: _361  and  _364
REMARK  152  A    between atoms: _367  and  _369
REMARK  153  A    between atoms: _369  and  _370
REMARK  154  A    between atoms: _369  and  _372
REMARK  155  A    between atoms: _375  and  _377
REMARK  156  A    between atoms: _377  and  _378
REMARK  157  A    between atoms: _380  and  _382
REMARK  158  A    between atoms: _382  and  _383
REMARK  159  A    between atoms: _385  and  _387
REMARK  160  A    between atoms: _387  and  _388
REMARK  161  A    between atoms: _387  and  _390
REMARK  162  A    between atoms: _390  and  _391
REMARK  163  A    between atoms: _394  and  _396
REMARK  164  A    between atoms: _396  and  _397
REMARK  165  A    between atoms: _396  and  _399
REMARK  166  A    between atoms: _399  and  _400
REMARK  167  A    between atoms: _400  and  _402
REMARK  168  A    between atoms: _402  and  MG_565
REMARK  169  A    between atoms: _403  and  _405
REMARK  170  A    between atoms: _405  and  _406
REMARK  171  A    between atoms: _405  and  _408
REMARK  172  A    between atoms: _408  and  _409
REMARK  173  A    between atoms: _414  and  _415
REMARK  174  A    between atoms: _417  and  _419
REMARK  175  A    between atoms: _419  and  _420
REMARK  176  A    between atoms: _419  and  _422
REMARK  177  A    between atoms: _422  and  _423
REMARK  178  A    between atoms: _426  and  _428
REMARK  179  A    between atoms: _428  and  _429
REMARK  180  A    between atoms: _428  and  _431
REMARK  181  A    between atoms: _431  and  _432
REMARK  182  A    between atoms: _432  and  _433
REMARK  183  A    between atoms: _436  and  _438
REMARK  184  A    between atoms: _438  and  _439
REMARK  185  A    between atoms: _438  and  _441
REMARK  186  A    between atoms: _441  and  _442
REMARK  187  A    between atoms: _442  and  _443
REMARK  188  A    between atoms: _443  and  _444
REMARK  189  A    between atoms: _453  and  _455
REMARK  190  A    between atoms: _455  and  _456
REMARK  191  A    between atoms: _455  and  _458
REMARK  192  A    between atoms: _458  and  _459
REMARK  193  A    between atoms: _464  and  _465
REMARK  194  A    between atoms: _467  and  _469
REMARK  195  A    between atoms: _469  and  _470
REMARK  196  A    between atoms: _469  and  _472
REMARK  197  A    between atoms: _472  and  _473
REMARK  198  A    between atoms: _473  and  _474
REMARK  199  A    between atoms: _474  and  _475
REMARK  200  A    between atoms: _484  and  _486
REMARK  201  A    between atoms: _486  and  _487
REMARK  202  A    between atoms: _486  and  _489
REMARK  203  A    between atoms: _489  and  _490
REMARK  204  A    between atoms: _493  and  _495
REMARK  205  A    between atoms: _495  and  _496
REMARK  206  A    between atoms: _498  and  _500
REMARK  207  A    between atoms: _500  and  _501
REMARK  208  A    between atoms: _500  and  _503
REMARK  209  A    between atoms: _503  and  _504
REMARK  210  A    between atoms: _507  and  _509
REMARK  211  A    between atoms: _509  and  _510
REMARK  212  A    between atoms: _509  and  _512
REMARK  213  A    between atoms: _512  and  _513
REMARK  214  A    between atoms: _518  and  _519
REMARK  215  A    between atoms: _521  and  _523
REMARK  216  A    between atoms: _523  and  _524
REMARK  217  A    between atoms: _523  and  _526
REMARK  218  A    between atoms: _526  and  _527
REMARK  219  A    between atoms: _533  and  _535
REMARK  220  A    between atoms: _535  and  _536
REMARK  221  A    between atoms: _535  and  _538
REMARK  222  A    between atoms: _538  and  _539
REMARK  223  A    between atoms: _545  and  _547
REMARK  224  A    between atoms: _547  and  _548
REMARK  225  A    between atoms: _547  and  _550
REMARK  226  A    between atoms: _550  and  _551
REMARK  227  A    between atoms: _554  and  _556
REMARK  228  A    between atoms: _556  and  _557
REMARK  229  A    between atoms: _556  and  _559
REMARK  230  A    between atoms: _559  and  _560
REMARK                            x       y       z     vdW  Elec       q    Type
REMARK                         _______ _______ _______ _____ _____    ______ ____
ROOT
ATOM      1  O   HOH     1      -6.160  22.855 128.023  0.00  0.00    +0.000 OA
ENDROOT
TORSDOF 0
REMARK  Name = ../refined-set-2016/4rhx/4rhx_pocket.pdb
REMARK  230 active torsions:
REMARK  status: ('A' for Active; 'I' for Inactive)
REMARK    1  A    between atoms: _1  and  _3
REMARK    2  A    between atoms: _3  and  _4
REMARK    3  A    between atoms: _3  and  _6
REMARK    4  A    between atoms: _6  and  _7
REMARK    5  A    between atoms: _10  and  _12
REMARK    6  A    between atoms: _12  and  _13
REMARK    7  A    between atoms: _12  and  _15
REMARK    8  A    between atoms: _18  and  _20
REMARK    9  A    between atoms: _20  and  _21
REMARK   10  A    between atoms: _20  and  _23
REMARK   11  A    between atoms: _23  and  _24
REMARK   12  A    between atoms: _27  and  _29
REMARK   13  A    between atoms: _29  and  _30
REMARK   14  A    between atoms: _29  and  _32
REMARK   15  A    between atoms: _32  and  _33
REMARK   16  A    between atoms: _33  and  _34
REMARK   17  A    between atoms: _34  and  _35
REMARK   18  A    between atoms: _35  and  _36
REMARK   19  A    between atoms: _40  and  _42
REMARK   20  A    between atoms: _42  and  _43
REMARK   21  A    between atoms: _45  and  _47
REMARK   22  A    between atoms: _47  and  _48
REMARK   23  A    between atoms: _51  and  _53
REMARK   24  A    between atoms: _53  and  _54
REMARK   25  A    between atoms: _53  and  _56
REMARK   26  A    between atoms: _59  and  _61
REMARK   27  A    between atoms: _61  and  _62
REMARK   28  A    between atoms: _61  and  _64
REMARK   29  A    between atoms: _64  and  _65
REMARK   30  A    between atoms: _65  and  _66
REMARK   31  A    between atoms: _68  and  _70
REMARK   32  A    between atoms: _70  and  _71
REMARK   33  A    between atoms: _74  and  _76
REMARK   34  A    between atoms: _76  and  _77
REMARK   35  A    between atoms: _76  and  _79
REMARK   36  A    between atoms: _82  and  _84
REMARK   37  A    between atoms: _84  and  _85
REMARK   38  A    between atoms: _84  and  _87
REMARK   39  A    between atoms: _87  and  _88
REMARK   40  A    between atoms: _90  and  _92
REMARK   41  A    between atoms: _92  and  _93
REMARK   42  A    between atoms: _92  and  _95
REMARK   43  A    between atoms: _95  and  _96
REMARK   44  A    between atoms: _98  and  _100
REMARK   45  A    between atoms: _100  and  _101
REMARK   46  A    between atoms: _100  and  _103
REMARK   47  A    between atoms: _103  and  _104
REMARK   48  A    between atoms: _109  and  _110
REMARK   49  A    between atoms: _112  and  _114
REMARK   50  A    between atoms: _114  and  _115
REMARK   51  A    between atoms: _117  and  _119
REMARK   52  A    between atoms: _119  and  _120
REMARK   53  A    between atoms: _119  and  _122
REMARK   54  A    between atoms: _125  and  _127
REMARK   55  A    between atoms: _127  and  _128
REMARK   56  A    between atoms: _127  and  _130
REMARK   57  A    between atoms: _130  and  _131
REMARK   58  A    between atoms: _131  and  _132
REMARK   59  A    between atoms: _132  and  _133
REMARK   60  A    between atoms: _142  and  _144
REMARK   61  A    between atoms: _144  and  _145
REMARK   62  A    between atoms: _144  and  _147
REMARK   63  A    between atoms: _147  and  _148
REMARK   64  A    between atoms: _151  and  _153
REMARK   65  A    between atoms: _153  and  _154
REMARK   66  A    between atoms: _153  and  _156
REMARK   67  A    between atoms: _156  and  _157
REMARK   68  A    between atoms: _157  and  _158
REMARK   69  A    between atoms: _161  and  _163
REMARK   70  A    between atoms: _163  and  _164
REMARK   71  A    between atoms: _163  and  _166
REMARK   72  A    between atoms: _166  and  _167
REMARK   73  A    between atoms: _170  and  _172
REMARK   74  A    between atoms: _172  and  _173
REMARK   75  A    between atoms: _172  and  _175
REMARK   76  A    between atoms: _178  and  _180
REMARK   77  A    between atoms: _180  and  _181
REMARK   78  A    between atoms: _180  and  _183
REMARK   79  A    between atoms: _186  and  _188
REMARK   80  A    between atoms: _188  and  _189
REMARK   81  A    between atoms: _188  and  _191
REMARK   82  A    between atoms: _191  and  _192
REMARK   83  A    between atoms: _195  and  _197
REMARK   84  A    between atoms: _197  and  _198
REMARK   85  A    between atoms: _197  and  _200
REMARK   86  A    between atoms: _200  and  _201
REMARK   87  A    between atoms: _203  and  _205
REMARK   88  A    between atoms: _205  and  _206
REMARK   89  A    between atoms: _208  and  _210
REMARK   90  A    between atoms: _210  and  _211
REMARK   91  A    between atoms: _210  and  _213
REMARK   92  A    between atoms: _213  and  _214
REMARK   93  A    between atoms: _217  and  _219
REMARK   94  A    between atoms: _219  and  _220
REMARK   95  A    between atoms: _219  and  _222
REMARK   96  A    between atoms: _222  and  _223
REMARK   97  A    between atoms: _226  and  _228
REMARK   98  A    between atoms: _228  and  _229
REMARK   99  A    between atoms: _228  and  _231
REMARK  100  A    between atoms: _231  and  _232
REMARK  101  A    between atoms: _235  and  _237
REMARK  102  A    between atoms: _237  and  _238
REMARK  103  A    between atoms: _237  and  _240
REMARK  104  A    between atoms: _240  and  _241
REMARK  105  A    between atoms: _243  and  _245
REMARK  106  A    between atoms: _245  and  _246
REMARK  107  A    between atoms: _245  and  _248
REMARK  108  A    between atoms: _248  and  _249
REMARK  109  A    between atoms: _259  and  _261
REMARK  110  A    between atoms: _261  and  _262
REMARK  111  A    between atoms: _261  and  _264
REMARK  112  A    between atoms: _264  and  _265
REMARK  113  A    between atoms: _268  and  _270
REMARK  114  A    between atoms: _270  and  _271
REMARK  115  A    between atoms: _270  and  _273
REMARK  116  A    between atoms: _273  and  _274
REMARK  117  A    between atoms: _277  and  _279
REMARK  118  A    between atoms: _279  and  _280
REMARK  119  A    between atoms: _279  and  _282
REMARK  120  A    between atoms: _282  and  _283
REMARK  121  A    between atoms: _283  and  _284
REMARK  122  A    between atoms: _284  and  _285
REMARK  123  A    between atoms: _285  and  _286
REMARK  124  A    between atoms: _290  and  _292
REMARK  125  A    between atoms: _292  and  _293
REMARK  126  A    between atoms: _292  and  _295
REMARK  127  A    between atoms: _295  and  _296
REMARK  128  A    between atoms: _299  and  _301
REMARK  129  A    between atoms: _301  and  _302
REMARK  130  A    between atoms: _305  and  _307
REMARK  131  A    between atoms: _307  and  _308
REMARK  132  A    between atoms: _311  and  _313
REMARK  133  A    between atoms: _313  and  _314
REMARK  134  A    between atoms: _313  and  _316
REMARK  135  A    between atoms: _316  and  _317
REMARK  136  A    between atoms: _321  and  _322
REMARK  137  A    between atoms: _327  and  _329
REMARK  138  A    between atoms: _329  and  _330
REMARK  139  A    between atoms: _329  and  _332
REMARK  140  A    between atoms: _332  and  _333
REMARK  141  A    between atoms: _338  and  _340
REMARK  142  A    between atoms: _340  and  _341
REMARK  143  A    between atoms: _340  and  _343
REMARK  144  A    between atoms: _343  and  _344
REMARK  145  A    between atoms: _347  and  _349
REMARK  146  A    between atoms: _349  and  _350
REMARK  147  A    between atoms: _349  and  _352
REMARK  148  A    between atoms: _352  and  _353
REMARK  149  A    between atoms: _359  and  _361
REMARK  150  A    between atoms: _361  and  _362
REMARK  151  A    between atoms: _361  and  _364
REMARK  152  A    between atoms: _367  and  _369
REMARK  153  A    between atoms: _369  and  _370
REMARK  154  A    between atoms: _369  and  _372
REMARK  155  A    between atoms: _375  and  _377
REMARK  156  A    between atoms: _377  and  _378
REMARK  157  A    between atoms: _380  and  _382
REMARK  158  A    between atoms: _382  and  _383
REMARK  159  A    between atoms: _385  and  _387
REMARK  160  A    between atoms: _387  and  _388
REMARK  161  A    between atoms: _387  and  _390
REMARK  162  A    between atoms: _390  and  _391
REMARK  163  A    between atoms: _394  and  _396
REMARK  164  A    between atoms: _396  and  _397
REMARK  165  A    between atoms: _396  and  _399
REMARK  166  A    between atoms: _399  and  _400
REMARK  167  A    between atoms: _400  and  _402
REMARK  168  A    between atoms: _402  and  MG_565
REMARK  169  A    between atoms: _403  and  _405
REMARK  170  A    between atoms: _405  and  _406
REMARK  171  A    between atoms: _405  and  _408
REMARK  172  A    between atoms: _408  and  _409
REMARK  173  A    between atoms: _414  and  _415
REMARK  174  A    between atoms: _417  and  _419
REMARK  175  A    between atoms: _419  and  _420
REMARK  176  A    between atoms: _419  and  _422
REMARK  177  A    between atoms: _422  and  _423
REMARK  178  A    between atoms: _426  and  _428
REMARK  179  A    between atoms: _428  and  _429
REMARK  180  A    between atoms: _428  and  _431
REMARK  181  A    between atoms: _431  and  _432
REMARK  182  A    between atoms: _432  and  _433
REMARK  183  A    between atoms: _436  and  _438
REMARK  184  A    between atoms: _438  and  _439
REMARK  185  A    between atoms: _438  and  _441
REMARK  186  A    between atoms: _441  and  _442
REMARK  187  A    between atoms: _442  and  _443
REMARK  188  A    between atoms: _443  and  _444
REMARK  189  A    between atoms: _453  and  _455
REMARK  190  A    between atoms: _455  and  _456
REMARK  191  A    between atoms: _455  and  _458
REMARK  192  A    between atoms: _458  and  _459
REMARK  193  A    between atoms: _464  and  _465
REMARK  194  A    between atoms: _467  and  _469
REMARK  195  A    between atoms: _469  and  _470
REMARK  196  A    between atoms: _469  and  _472
REMARK  197  A    between atoms: _472  and  _473
REMARK  198  A    between atoms: _473  and  _474
REMARK  199  A    between atoms: _474  and  _475
REMARK  200  A    between atoms: _484  and  _486
REMARK  201  A    between atoms: _486  and  _487
REMARK  202  A    between atoms: _486  and  _489
REMARK  203  A    between atoms: _489  and  _490
REMARK  204  A    between atoms: _493  and  _495
REMARK  205  A    between atoms: _495  and  _496
REMARK  206  A    between atoms: _498  and  _500
REMARK  207  A    between atoms: _500  and  _501
REMARK  208  A    between atoms: _500  and  _503
REMARK  209  A    between atoms: _503  and  _504
REMARK  210  A    between atoms: _507  and  _509
REMARK  211  A    between atoms: _509  and  _510
REMARK  212  A    between atoms: _509  and  _512
REMARK  213  A    between atoms: _512  and  _513
REMARK  214  A    between atoms: _518  and  _519
REMARK  215  A    between atoms: _521  and  _523
REMARK  216  A    between atoms: _523  and  _524
REMARK  217  A    between atoms: _523  and  _526
REMARK  218  A    between atoms: _526  and  _527
REMARK  219  A    between atoms: _533  and  _535
REMARK  220  A    between atoms: _535  and  _536
REMARK  221  A    between atoms: _535  and  _538
REMARK  222  A    between atoms: _538  and  _539
REMARK  223  A    between atoms: _545  and  _547
REMARK  224  A    between atoms: _547  and  _548
REMARK  225  A    between atoms: _547  and  _550
REMARK  226  A    between atoms: _550  and  _551
REMARK  227  A    between atoms: _554  and  _556
REMARK  228  A    between atoms: _556  and  _557
REMARK  229  A    between atoms: _556  and  _559
REMARK  230  A    between atoms: _559  and  _560
REMARK                            x       y       z     vdW  Elec       q    Type
REMARK                         _______ _______ _______ _____ _____    ______ ____
ROOT
ATOM      1  O   HOH     1      -8.739  16.835 119.528  0.00  0.00    +0.000 OA
ENDROOT
TORSDOF 0
REMARK  Name = ../refined-set-2016/4rhx/4rhx_pocket.pdb
REMARK  230 active torsions:
REMARK  status: ('A' for Active; 'I' for Inactive)
REMARK    1  A    between atoms: _1  and  _3
REMARK    2  A    between atoms: _3  and  _4
REMARK    3  A    between atoms: _3  and  _6
REMARK    4  A    between atoms: _6  and  _7
REMARK    5  A    between atoms: _10  and  _12
REMARK    6  A    between atoms: _12  and  _13
REMARK    7  A    between atoms: _12  and  _15
REMARK    8  A    between atoms: _18  and  _20
REMARK    9  A    between atoms: _20  and  _21
REMARK   10  A    between atoms: _20  and  _23
REMARK   11  A    between atoms: _23  and  _24
REMARK   12  A    between atoms: _27  and  _29
REMARK   13  A    between atoms: _29  and  _30
REMARK   14  A    between atoms: _29  and  _32
REMARK   15  A    between atoms: _32  and  _33
REMARK   16  A    between atoms: _33  and  _34
REMARK   17  A    between atoms: _34  and  _35
REMARK   18  A    between atoms: _35  and  _36
REMARK   19  A    between atoms: _40  and  _42
REMARK   20  A    between atoms: _42  and  _43
REMARK   21  A    between atoms: _45  and  _47
REMARK   22  A    between atoms: _47  and  _48
REMARK   23  A    between atoms: _51  and  _53
REMARK   24  A    between atoms: _53  and  _54
REMARK   25  A    between atoms: _53  and  _56
REMARK   26  A    between atoms: _59  and  _61
REMARK   27  A    between atoms: _61  and  _62
REMARK   28  A    between atoms: _61  and  _64
REMARK   29  A    between atoms: _64  and  _65
REMARK   30  A    between atoms: _65  and  _66
REMARK   31  A    between atoms: _68  and  _70
REMARK   32  A    between atoms: _70  and  _71
REMARK   33  A    between atoms: _74  and  _76
REMARK   34  A    between atoms: _76  and  _77
REMARK   35  A    between atoms: _76  and  _79
REMARK   36  A    between atoms: _82  and  _84
REMARK   37  A    between atoms: _84  and  _85
REMARK   38  A    between atoms: _84  and  _87
REMARK   39  A    between atoms: _87  and  _88
REMARK   40  A    between atoms: _90  and  _92
REMARK   41  A    between atoms: _92  and  _93
REMARK   42  A    between atoms: _92  and  _95
REMARK   43  A    between atoms: _95  and  _96
REMARK   44  A    between atoms: _98  and  _100
REMARK   45  A    between atoms: _100  and  _101
REMARK   46  A    between atoms: _100  and  _103
REMARK   47  A    between atoms: _103  and  _104
REMARK   48  A    between atoms: _109  and  _110
REMARK   49  A    between atoms: _112  and  _114
REMARK   50  A    between atoms: _114  and  _115
REMARK   51  A    between atoms: _117  and  _119
REMARK   52  A    between atoms: _119  and  _120
REMARK   53  A    between atoms: _119  and  _122
REMARK   54  A    between atoms: _125  and  _127
REMARK   55  A    between atoms: _127  and  _128
REMARK   56  A    between atoms: _127  and  _130
REMARK   57  A    between atoms: _130  and  _131
REMARK   58  A    between atoms: _131  and  _132
REMARK   59  A    between atoms: _132  and  _133
REMARK   60  A    between atoms: _142  and  _144
REMARK   61  A    between atoms: _144  and  _145
REMARK   62  A    between atoms: _144  and  _147
REMARK   63  A    between atoms: _147  and  _148
REMARK   64  A    between atoms: _151  and  _153
REMARK   65  A    between atoms: _153  and  _154
REMARK   66  A    between atoms: _153  and  _156
REMARK   67  A    between atoms: _156  and  _157
REMARK   68  A    between atoms: _157  and  _158
REMARK   69  A    between atoms: _161  and  _163
REMARK   70  A    between atoms: _163  and  _164
REMARK   71  A    between atoms: _163  and  _166
REMARK   72  A    between atoms: _166  and  _167
REMARK   73  A    between atoms: _170  and  _172
REMARK   74  A    between atoms: _172  and  _173
REMARK   75  A    between atoms: _172  and  _175
REMARK   76  A    between atoms: _178  and  _180
REMARK   77  A    between atoms: _180  and  _181
REMARK   78  A    between atoms: _180  and  _183
REMARK   79  A    between atoms: _186  and  _188
REMARK   80  A    between atoms: _188  and  _189
REMARK   81  A    between atoms: _188  and  _191
REMARK   82  A    between atoms: _191  and  _192
REMARK   83  A    between atoms: _195  and  _197
REMARK   84  A    between atoms: _197  and  _198
REMARK   85  A    between atoms: _197  and  _200
REMARK   86  A    between atoms: _200  and  _201
REMARK   87  A    between atoms: _203  and  _205
REMARK   88  A    between atoms: _205  and  _206
REMARK   89  A    between atoms: _208  and  _210
REMARK   90  A    between atoms: _210  and  _211
REMARK   91  A    between atoms: _210  and  _213
REMARK   92  A    between atoms: _213  and  _214
REMARK   93  A    between atoms: _217  and  _219
REMARK   94  A    between atoms: _219  and  _220
REMARK   95  A    between atoms: _219  and  _222
REMARK   96  A    between atoms: _222  and  _223
REMARK   97  A    between atoms: _226  and  _228
REMARK   98  A    between atoms: _228  and  _229
REMARK   99  A    between atoms: _228  and  _231
REMARK  100  A    between atoms: _231  and  _232
REMARK  101  A    between atoms: _235  and  _237
REMARK  102  A    between atoms: _237  and  _238
REMARK  103  A    between atoms: _237  and  _240
REMARK  104  A    between atoms: _240  and  _241
REMARK  105  A    between atoms: _243  and  _245
REMARK  106  A    between atoms: _245  and  _246
REMARK  107  A    between atoms: _245  and  _248
REMARK  108  A    between atoms: _248  and  _249
REMARK  109  A    between atoms: _259  and  _261
REMARK  110  A    between atoms: _261  and  _262
REMARK  111  A    between atoms: _261  and  _264
REMARK  112  A    between atoms: _264  and  _265
REMARK  113  A    between atoms: _268  and  _270
REMARK  114  A    between atoms: _270  and  _271
REMARK  115  A    between atoms: _270  and  _273
REMARK  116  A    between atoms: _273  and  _274
REMARK  117  A    between atoms: _277  and  _279
REMARK  118  A    between atoms: _279  and  _280
REMARK  119  A    between atoms: _279  and  _282
REMARK  120  A    between atoms: _282  and  _283
REMARK  121  A    between atoms: _283  and  _284
REMARK  122  A    between atoms: _284  and  _285
REMARK  123  A    between atoms: _285  and  _286
REMARK  124  A    between atoms: _290  and  _292
REMARK  125  A    between atoms: _292  and  _293
REMARK  126  A    between atoms: _292  and  _295
REMARK  127  A    between atoms: _295  and  _296
REMARK  128  A    between atoms: _299  and  _301
REMARK  129  A    between atoms: _301  and  _302
REMARK  130  A    between atoms: _305  and  _307
REMARK  131  A    between atoms: _307  and  _308
REMARK  132  A    between atoms: _311  and  _313
REMARK  133  A    between atoms: _313  and  _314
REMARK  134  A    between atoms: _313  and  _316
REMARK  135  A    between atoms: _316  and  _317
REMARK  136  A    between atoms: _321  and  _322
REMARK  137  A    between atoms: _327  and  _329
REMARK  138  A    between atoms: _329  and  _330
REMARK  139  A    between atoms: _329  and  _332
REMARK  140  A    between atoms: _332  and  _333
REMARK  141  A    between atoms: _338  and  _340
REMARK  142  A    between atoms: _340  and  _341
REMARK  143  A    between atoms: _340  and  _343
REMARK  144  A    between atoms: _343  and  _344
REMARK  145  A    between atoms: _347  and  _349
REMARK  146  A    between atoms: _349  and  _350
REMARK  147  A    between atoms: _349  and  _352
REMARK  148  A    between atoms: _352  and  _353
REMARK  149  A    between atoms: _359  and  _361
REMARK  150  A    between atoms: _361  and  _362
REMARK  151  A    between atoms: _361  and  _364
REMARK  152  A    between atoms: _367  and  _369
REMARK  153  A    between atoms: _369  and  _370
REMARK  154  A    between atoms: _369  and  _372
REMARK  155  A    between atoms: _375  and  _377
REMARK  156  A    between atoms: _377  and  _378
REMARK  157  A    between atoms: _380  and  _382
REMARK  158  A    between atoms: _382  and  _383
REMARK  159  A    between atoms: _385  and  _387
REMARK  160  A    between atoms: _387  and  _388
REMARK  161  A    between atoms: _387  and  _390
REMARK  162  A    between atoms: _390  and  _391
REMARK  163  A    between atoms: _394  and  _396
REMARK  164  A    between atoms: _396  and  _397
REMARK  165  A    between atoms: _396  and  _399
REMARK  166  A    between atoms: _399  and  _400
REMARK  167  A    between atoms: _400  and  _402
REMARK  168  A    between atoms: _402  and  MG_565
REMARK  169  A    between atoms: _403  and  _405
REMARK  170  A    between atoms: _405  and  _406
REMARK  171  A    between atoms: _405  and  _408
REMARK  172  A    between atoms: _408  and  _409
REMARK  173  A    between atoms: _414  and  _415
REMARK  174  A    between atoms: _417  and  _419
REMARK  175  A    between atoms: _419  and  _420
REMARK  176  A    between atoms: _419  and  _422
REMARK  177  A    between atoms: _422  and  _423
REMARK  178  A    between atoms: _426  and  _428
REMARK  179  A    between atoms: _428  and  _429
REMARK  180  A    between atoms: _428  and  _431
REMARK  181  A    between atoms: _431  and  _432
REMARK  182  A    between atoms: _432  and  _433
REMARK  183  A    between atoms: _436  and  _438
REMARK  184  A    between atoms: _438  and  _439
REMARK  185  A    between atoms: _438  and  _441
REMARK  186  A    between atoms: _441  and  _442
REMARK  187  A    between atoms: _442  and  _443
REMARK  188  A    between atoms: _443  and  _444
REMARK  189  A    between atoms: _453  and  _455
REMARK  190  A    between atoms: _455  and  _456
REMARK  191  A    between atoms: _455  and  _458
REMARK  192  A    between atoms: _458  and  _459
REMARK  193  A    between atoms: _464  and  _465
REMARK  194  A    between atoms: _467  and  _469
REMARK  195  A    between atoms: _469  and  _470
REMARK  196  A    between atoms: _469  and  _472
REMARK  197  A    between atoms: _472  and  _473
REMARK  198  A    between atoms: _473  and  _474
REMARK  199  A    between atoms: _474  and  _475
REMARK  200  A    between atoms: _484  and  _486
REMARK  201  A    between atoms: _486  and  _487
REMARK  202  A    between atoms: _486  and  _489
REMARK  203  A    between atoms: _489  and  _490
REMARK  204  A    between atoms: _493  and  _495
REMARK  205  A    between atoms: _495  and  _496
REMARK  206  A    between atoms: _498  and  _500
REMARK  207  A    between atoms: _500  and  _501
REMARK  208  A    between atoms: _500  and  _503
REMARK  209  A    between atoms: _503  and  _504
REMARK  210  A    between atoms: _507  and  _509
REMARK  211  A    between atoms: _509  and  _510
REMARK  212  A    between atoms: _509  and  _512
REMARK  213  A    between atoms: _512  and  _513
REMARK  214  A    between atoms: _518  and  _519
REMARK  215  A    between atoms: _521  and  _523
REMARK  216  A    between atoms: _523  and  _524
REMARK  217  A    between atoms: _523  and  _526
REMARK  218  A    between atoms: _526  and  _527
REMARK  219  A    between atoms: _533  and  _535
REMARK  220  A    between atoms: _535  and  _536
REMARK  221  A    between atoms: _535  and  _538
REMARK  222  A    between atoms: _538  and  _539
REMARK  223  A    between atoms: _545  and  _547
REMARK  224  A    between atoms: _547  and  _548
REMARK  225  A    between atoms: _547  and  _550
REMARK  226  A    between atoms: _550  and  _551
REMARK  227  A    between atoms: _554  and  _556
REMARK  228  A    between atoms: _556  and  _557
REMARK  229  A    between atoms: _556  and  _559
REMARK  230  A    between atoms: _559  and  _560
REMARK                            x       y       z     vdW  Elec       q    Type
REMARK                         _______ _______ _______ _____ _____    ______ ____
ROOT
ATOM      1  O   HOH     1      -0.512   7.604 125.106  0.00  0.00    +0.000 OA
ENDROOT
TORSDOF 0
REMARK  Name = ../refined-set-2016/4rhx/4rhx_pocket.pdb
REMARK  230 active torsions:
REMARK  status: ('A' for Active; 'I' for Inactive)
REMARK    1  A    between atoms: _1  and  _3
REMARK    2  A    between atoms: _3  and  _4
REMARK    3  A    between atoms: _3  and  _6
REMARK    4  A    between atoms: _6  and  _7
REMARK    5  A    between atoms: _10  and  _12
REMARK    6  A    between atoms: _12  and  _13
REMARK    7  A    between atoms: _12  and  _15
REMARK    8  A    between atoms: _18  and  _20
REMARK    9  A    between atoms: _20  and  _21
REMARK   10  A    between atoms: _20  and  _23
REMARK   11  A    between atoms: _23  and  _24
REMARK   12  A    between atoms: _27  and  _29
REMARK   13  A    between atoms: _29  and  _30
REMARK   14  A    between atoms: _29  and  _32
REMARK   15  A    between atoms: _32  and  _33
REMARK   16  A    between atoms: _33  and  _34
REMARK   17  A    between atoms: _34  and  _35
REMARK   18  A    between atoms: _35  and  _36
REMARK   19  A    between atoms: _40  and  _42
REMARK   20  A    between atoms: _42  and  _43
REMARK   21  A    between atoms: _45  and  _47
REMARK   22  A    between atoms: _47  and  _48
REMARK   23  A    between atoms: _51  and  _53
REMARK   24  A    between atoms: _53  and  _54
REMARK   25  A    between atoms: _53  and  _56
REMARK   26  A    between atoms: _59  and  _61
REMARK   27  A    between atoms: _61  and  _62
REMARK   28  A    between atoms: _61  and  _64
REMARK   29  A    between atoms: _64  and  _65
REMARK   30  A    between atoms: _65  and  _66
REMARK   31  A    between atoms: _68  and  _70
REMARK   32  A    between atoms: _70  and  _71
REMARK   33  A    between atoms: _74  and  _76
REMARK   34  A    between atoms: _76  and  _77
REMARK   35  A    between atoms: _76  and  _79
REMARK   36  A    between atoms: _82  and  _84
REMARK   37  A    between atoms: _84  and  _85
REMARK   38  A    between atoms: _84  and  _87
REMARK   39  A    between atoms: _87  and  _88
REMARK   40  A    between atoms: _90  and  _92
REMARK   41  A    between atoms: _92  and  _93
REMARK   42  A    between atoms: _92  and  _95
REMARK   43  A    between atoms: _95  and  _96
REMARK   44  A    between atoms: _98  and  _100
REMARK   45  A    between atoms: _100  and  _101
REMARK   46  A    between atoms: _100  and  _103
REMARK   47  A    between atoms: _103  and  _104
REMARK   48  A    between atoms: _109  and  _110
REMARK   49  A    between atoms: _112  and  _114
REMARK   50  A    between atoms: _114  and  _115
REMARK   51  A    between atoms: _117  and  _119
REMARK   52  A    between atoms: _119  and  _120
REMARK   53  A    between atoms: _119  and  _122
REMARK   54  A    between atoms: _125  and  _127
REMARK   55  A    between atoms: _127  and  _128
REMARK   56  A    between atoms: _127  and  _130
REMARK   57  A    between atoms: _130  and  _131
REMARK   58  A    between atoms: _131  and  _132
REMARK   59  A    between atoms: _132  and  _133
REMARK   60  A    between atoms: _142  and  _144
REMARK   61  A    between atoms: _144  and  _145
REMARK   62  A    between atoms: _144  and  _147
REMARK   63  A    between atoms: _147  and  _148
REMARK   64  A    between atoms: _151  and  _153
REMARK   65  A    between atoms: _153  and  _154
REMARK   66  A    between atoms: _153  and  _156
REMARK   67  A    between atoms: _156  and  _157
REMARK   68  A    between atoms: _157  and  _158
REMARK   69  A    between atoms: _161  and  _163
REMARK   70  A    between atoms: _163  and  _164
REMARK   71  A    between atoms: _163  and  _166
REMARK   72  A    between atoms: _166  and  _167
REMARK   73  A    between atoms: _170  and  _172
REMARK   74  A    between atoms: _172  and  _173
REMARK   75  A    between atoms: _172  and  _175
REMARK   76  A    between atoms: _178  and  _180
REMARK   77  A    between atoms: _180  and  _181
REMARK   78  A    between atoms: _180  and  _183
REMARK   79  A    between atoms: _186  and  _188
REMARK   80  A    between atoms: _188  and  _189
REMARK   81  A    between atoms: _188  and  _191
REMARK   82  A    between atoms: _191  and  _192
REMARK   83  A    between atoms: _195  and  _197
REMARK   84  A    between atoms: _197  and  _198
REMARK   85  A    between atoms: _197  and  _200
REMARK   86  A    between atoms: _200  and  _201
REMARK   87  A    between atoms: _203  and  _205
REMARK   88  A    between atoms: _205  and  _206
REMARK   89  A    between atoms: _208  and  _210
REMARK   90  A    between atoms: _210  and  _211
REMARK   91  A    between atoms: _210  and  _213
REMARK   92  A    between atoms: _213  and  _214
REMARK   93  A    between atoms: _217  and  _219
REMARK   94  A    between atoms: _219  and  _220
REMARK   95  A    between atoms: _219  and  _222
REMARK   96  A    between atoms: _222  and  _223
REMARK   97  A    between atoms: _226  and  _228
REMARK   98  A    between atoms: _228  and  _229
REMARK   99  A    between atoms: _228  and  _231
REMARK  100  A    between atoms: _231  and  _232
REMARK  101  A    between atoms: _235  and  _237
REMARK  102  A    between atoms: _237  and  _238
REMARK  103  A    between atoms: _237  and  _240
REMARK  104  A    between atoms: _240  and  _241
REMARK  105  A    between atoms: _243  and  _245
REMARK  106  A    between atoms: _245  and  _246
REMARK  107  A    between atoms: _245  and  _248
REMARK  108  A    between atoms: _248  and  _249
REMARK  109  A    between atoms: _259  and  _261
REMARK  110  A    between atoms: _261  and  _262
REMARK  111  A    between atoms: _261  and  _264
REMARK  112  A    between atoms: _264  and  _265
REMARK  113  A    between atoms: _268  and  _270
REMARK  114  A    between atoms: _270  and  _271
REMARK  115  A    between atoms: _270  and  _273
REMARK  116  A    between atoms: _273  and  _274
REMARK  117  A    between atoms: _277  and  _279
REMARK  118  A    between atoms: _279  and  _280
REMARK  119  A    between atoms: _279  and  _282
REMARK  120  A    between atoms: _282  and  _283
REMARK  121  A    between atoms: _283  and  _284
REMARK  122  A    between atoms: _284  and  _285
REMARK  123  A    between atoms: _285  and  _286
REMARK  124  A    between atoms: _290  and  _292
REMARK  125  A    between atoms: _292  and  _293
REMARK  126  A    between atoms: _292  and  _295
REMARK  127  A    between atoms: _295  and  _296
REMARK  128  A    between atoms: _299  and  _301
REMARK  129  A    between atoms: _301  and  _302
REMARK  130  A    between atoms: _305  and  _307
REMARK  131  A    between atoms: _307  and  _308
REMARK  132  A    between atoms: _311  and  _313
REMARK  133  A    between atoms: _313  and  _314
REMARK  134  A    between atoms: _313  and  _316
REMARK  135  A    between atoms: _316  and  _317
REMARK  136  A    between atoms: _321  and  _322
REMARK  137  A    between atoms: _327  and  _329
REMARK  138  A    between atoms: _329  and  _330
REMARK  139  A    between atoms: _329  and  _332
REMARK  140  A    between atoms: _332  and  _333
REMARK  141  A    between atoms: _338  and  _340
REMARK  142  A    between atoms: _340  and  _341
REMARK  143  A    between atoms: _340  and  _343
REMARK  144  A    between atoms: _343  and  _344
REMARK  145  A    between atoms: _347  and  _349
REMARK  146  A    between atoms: _349  and  _350
REMARK  147  A    between atoms: _349  and  _352
REMARK  148  A    between atoms: _352  and  _353
REMARK  149  A    between atoms: _359  and  _361
REMARK  150  A    between atoms: _361  and  _362
REMARK  151  A    between atoms: _361  and  _364
REMARK  152  A    between atoms: _367  and  _369
REMARK  153  A    between atoms: _369  and  _370
REMARK  154  A    between atoms: _369  and  _372
REMARK  155  A    between atoms: _375  and  _377
REMARK  156  A    between atoms: _377  and  _378
REMARK  157  A    between atoms: _380  and  _382
REMARK  158  A    between atoms: _382  and  _383
REMARK  159  A    between atoms: _385  and  _387
REMARK  160  A    between atoms: _387  and  _388
REMARK  161  A    between atoms: _387  and  _390
REMARK  162  A    between atoms: _390  and  _391
REMARK  163  A    between atoms: _394  and  _396
REMARK  164  A    between atoms: _396  and  _397
REMARK  165  A    between atoms: _396  and  _399
REMARK  166  A    between atoms: _399  and  _400
REMARK  167  A    between atoms: _400  and  _402
REMARK  168  A    between atoms: _402  and  MG_565
REMARK  169  A    between atoms: _403  and  _405
REMARK  170  A    between atoms: _405  and  _406
REMARK  171  A    between atoms: _405  and  _408
REMARK  172  A    between atoms: _408  and  _409
REMARK  173  A    between atoms: _414  and  _415
REMARK  174  A    between atoms: _417  and  _419
REMARK  175  A    between atoms: _419  and  _420
REMARK  176  A    between atoms: _419  and  _422
REMARK  177  A    between atoms: _422  and  _423
REMARK  178  A    between atoms: _426  and  _428
REMARK  179  A    between atoms: _428  and  _429
REMARK  180  A    between atoms: _428  and  _431
REMARK  181  A    between atoms: _431  and  _432
REMARK  182  A    between atoms: _432  and  _433
REMARK  183  A    between atoms: _436  and  _438
REMARK  184  A    between atoms: _438  and  _439
REMARK  185  A    between atoms: _438  and  _441
REMARK  186  A    between atoms: _441  and  _442
REMARK  187  A    between atoms: _442  and  _443
REMARK  188  A    between atoms: _443  and  _444
REMARK  189  A    between atoms: _453  and  _455
REMARK  190  A    between atoms: _455  and  _456
REMARK  191  A    between atoms: _455  and  _458
REMARK  192  A    between atoms: _458  and  _459
REMARK  193  A    between atoms: _464  and  _465
REMARK  194  A    between atoms: _467  and  _469
REMARK  195  A    between atoms: _469  and  _470
REMARK  196  A    between atoms: _469  and  _472
REMARK  197  A    between atoms: _472  and  _473
REMARK  198  A    between atoms: _473  and  _474
REMARK  199  A    between atoms: _474  and  _475
REMARK  200  A    between atoms: _484  and  _486
REMARK  201  A    between atoms: _486  and  _487
REMARK  202  A    between atoms: _486  and  _489
REMARK  203  A    between atoms: _489  and  _490
REMARK  204  A    between atoms: _493  and  _495
REMARK  205  A    between atoms: _495  and  _496
REMARK  206  A    between atoms: _498  and  _500
REMARK  207  A    between atoms: _500  and  _501
REMARK  208  A    between atoms: _500  and  _503
REMARK  209  A    between atoms: _503  and  _504
REMARK  210  A    between atoms: _507  and  _509
REMARK  211  A    between atoms: _509  and  _510
REMARK  212  A    between atoms: _509  and  _512
REMARK  213  A    between atoms: _512  and  _513
REMARK  214  A    between atoms: _518  and  _519
REMARK  215  A    between atoms: _521  and  _523
REMARK  216  A    between atoms: _523  and  _524
REMARK  217  A    between atoms: _523  and  _526
REMARK  218  A    between atoms: _526  and  _527
REMARK  219  A    between atoms: _533  and  _535
REMARK  220  A    between atoms: _535  and  _536
REMARK  221  A    between atoms: _535  and  _538
REMARK  222  A    between atoms: _538  and  _539
REMARK  223  A    between atoms: _545  and  _547
REMARK  224  A    between atoms: _547  and  _548
REMARK  225  A    between atoms: _547  and  _550
REMARK  226  A    between atoms: _550  and  _551
REMARK  227  A    between atoms: _554  and  _556
REMARK  228  A    between atoms: _556  and  _557
REMARK  229  A    between atoms: _556  and  _559
REMARK  230  A    between atoms: _559  and  _560
REMARK                            x       y       z     vdW  Elec       q    Type
REMARK                         _______ _______ _______ _____ _____    ______ ____
ROOT
ATOM      1  O   HOH     1      -0.986   9.854 126.989  0.00  0.00    +0.000 OA
ENDROOT
TORSDOF 0
REMARK  Name = ../refined-set-2016/4rhx/4rhx_pocket.pdb
REMARK  230 active torsions:
REMARK  status: ('A' for Active; 'I' for Inactive)
REMARK    1  A    between atoms: _1  and  _3
REMARK    2  A    between atoms: _3  and  _4
REMARK    3  A    between atoms: _3  and  _6
REMARK    4  A    between atoms: _6  and  _7
REMARK    5  A    between atoms: _10  and  _12
REMARK    6  A    between atoms: _12  and  _13
REMARK    7  A    between atoms: _12  and  _15
REMARK    8  A    between atoms: _18  and  _20
REMARK    9  A    between atoms: _20  and  _21
REMARK   10  A    between atoms: _20  and  _23
REMARK   11  A    between atoms: _23  and  _24
REMARK   12  A    between atoms: _27  and  _29
REMARK   13  A    between atoms: _29  and  _30
REMARK   14  A    between atoms: _29  and  _32
REMARK   15  A    between atoms: _32  and  _33
REMARK   16  A    between atoms: _33  and  _34
REMARK   17  A    between atoms: _34  and  _35
REMARK   18  A    between atoms: _35  and  _36
REMARK   19  A    between atoms: _40  and  _42
REMARK   20  A    between atoms: _42  and  _43
REMARK   21  A    between atoms: _45  and  _47
REMARK   22  A    between atoms: _47  and  _48
REMARK   23  A    between atoms: _51  and  _53
REMARK   24  A    between atoms: _53  and  _54
REMARK   25  A    between atoms: _53  and  _56
REMARK   26  A    between atoms: _59  and  _61
REMARK   27  A    between atoms: _61  and  _62
REMARK   28  A    between atoms: _61  and  _64
REMARK   29  A    between atoms: _64  and  _65
REMARK   30  A    between atoms: _65  and  _66
REMARK   31  A    between atoms: _68  and  _70
REMARK   32  A    between atoms: _70  and  _71
REMARK   33  A    between atoms: _74  and  _76
REMARK   34  A    between atoms: _76  and  _77
REMARK   35  A    between atoms: _76  and  _79
REMARK   36  A    between atoms: _82  and  _84
REMARK   37  A    between atoms: _84  and  _85
REMARK   38  A    between atoms: _84  and  _87
REMARK   39  A    between atoms: _87  and  _88
REMARK   40  A    between atoms: _90  and  _92
REMARK   41  A    between atoms: _92  and  _93
REMARK   42  A    between atoms: _92  and  _95
REMARK   43  A    between atoms: _95  and  _96
REMARK   44  A    between atoms: _98  and  _100
REMARK   45  A    between atoms: _100  and  _101
REMARK   46  A    between atoms: _100  and  _103
REMARK   47  A    between atoms: _103  and  _104
REMARK   48  A    between atoms: _109  and  _110
REMARK   49  A    between atoms: _112  and  _114
REMARK   50  A    between atoms: _114  and  _115
REMARK   51  A    between atoms: _117  and  _119
REMARK   52  A    between atoms: _119  and  _120
REMARK   53  A    between atoms: _119  and  _122
REMARK   54  A    between atoms: _125  and  _127
REMARK   55  A    between atoms: _127  and  _128
REMARK   56  A    between atoms: _127  and  _130
REMARK   57  A    between atoms: _130  and  _131
REMARK   58  A    between atoms: _131  and  _132
REMARK   59  A    between atoms: _132  and  _133
REMARK   60  A    between atoms: _142  and  _144
REMARK   61  A    between atoms: _144  and  _145
REMARK   62  A    between atoms: _144  and  _147
REMARK   63  A    between atoms: _147  and  _148
REMARK   64  A    between atoms: _151  and  _153
REMARK   65  A    between atoms: _153  and  _154
REMARK   66  A    between atoms: _153  and  _156
REMARK   67  A    between atoms: _156  and  _157
REMARK   68  A    between atoms: _157  and  _158
REMARK   69  A    between atoms: _161  and  _163
REMARK   70  A    between atoms: _163  and  _164
REMARK   71  A    between atoms: _163  and  _166
REMARK   72  A    between atoms: _166  and  _167
REMARK   73  A    between atoms: _170  and  _172
REMARK   74  A    between atoms: _172  and  _173
REMARK   75  A    between atoms: _172  and  _175
REMARK   76  A    between atoms: _178  and  _180
REMARK   77  A    between atoms: _180  and  _181
REMARK   78  A    between atoms: _180  and  _183
REMARK   79  A    between atoms: _186  and  _188
REMARK   80  A    between atoms: _188  and  _189
REMARK   81  A    between atoms: _188  and  _191
REMARK   82  A    between atoms: _191  and  _192
REMARK   83  A    between atoms: _195  and  _197
REMARK   84  A    between atoms: _197  and  _198
REMARK   85  A    between atoms: _197  and  _200
REMARK   86  A    between atoms: _200  and  _201
REMARK   87  A    between atoms: _203  and  _205
REMARK   88  A    between atoms: _205  and  _206
REMARK   89  A    between atoms: _208  and  _210
REMARK   90  A    between atoms: _210  and  _211
REMARK   91  A    between atoms: _210  and  _213
REMARK   92  A    between atoms: _213  and  _214
REMARK   93  A    between atoms: _217  and  _219
REMARK   94  A    between atoms: _219  and  _220
REMARK   95  A    between atoms: _219  and  _222
REMARK   96  A    between atoms: _222  and  _223
REMARK   97  A    between atoms: _226  and  _228
REMARK   98  A    between atoms: _228  and  _229
REMARK   99  A    between atoms: _228  and  _231
REMARK  100  A    between atoms: _231  and  _232
REMARK  101  A    between atoms: _235  and  _237
REMARK  102  A    between atoms: _237  and  _238
REMARK  103  A    between atoms: _237  and  _240
REMARK  104  A    between atoms: _240  and  _241
REMARK  105  A    between atoms: _243  and  _245
REMARK  106  A    between atoms: _245  and  _246
REMARK  107  A    between atoms: _245  and  _248
REMARK  108  A    between atoms: _248  and  _249
REMARK  109  A    between atoms: _259  and  _261
REMARK  110  A    between atoms: _261  and  _262
REMARK  111  A    between atoms: _261  and  _264
REMARK  112  A    between atoms: _264  and  _265
REMARK  113  A    between atoms: _268  and  _270
REMARK  114  A    between atoms: _270  and  _271
REMARK  115  A    between atoms: _270  and  _273
REMARK  116  A    between atoms: _273  and  _274
REMARK  117  A    between atoms: _277  and  _279
REMARK  118  A    between atoms: _279  and  _280
REMARK  119  A    between atoms: _279  and  _282
REMARK  120  A    between atoms: _282  and  _283
REMARK  121  A    between atoms: _283  and  _284
REMARK  122  A    between atoms: _284  and  _285
REMARK  123  A    between atoms: _285  and  _286
REMARK  124  A    between atoms: _290  and  _292
REMARK  125  A    between atoms: _292  and  _293
REMARK  126  A    between atoms: _292  and  _295
REMARK  127  A    between atoms: _295  and  _296
REMARK  128  A    between atoms: _299  and  _301
REMARK  129  A    between atoms: _301  and  _302
REMARK  130  A    between atoms: _305  and  _307
REMARK  131  A    between atoms: _307  and  _308
REMARK  132  A    between atoms: _311  and  _313
REMARK  133  A    between atoms: _313  and  _314
REMARK  134  A    between atoms: _313  and  _316
REMARK  135  A    between atoms: _316  and  _317
REMARK  136  A    between atoms: _321  and  _322
REMARK  137  A    between atoms: _327  and  _329
REMARK  138  A    between atoms: _329  and  _330
REMARK  139  A    between atoms: _329  and  _332
REMARK  140  A    between atoms: _332  and  _333
REMARK  141  A    between atoms: _338  and  _340
REMARK  142  A    between atoms: _340  and  _341
REMARK  143  A    between atoms: _340  and  _343
REMARK  144  A    between atoms: _343  and  _344
REMARK  145  A    between atoms: _347  and  _349
REMARK  146  A    between atoms: _349  and  _350
REMARK  147  A    between atoms: _349  and  _352
REMARK  148  A    between atoms: _352  and  _353
REMARK  149  A    between atoms: _359  and  _361
REMARK  150  A    between atoms: _361  and  _362
REMARK  151  A    between atoms: _361  and  _364
REMARK  152  A    between atoms: _367  and  _369
REMARK  153  A    between atoms: _369  and  _370
REMARK  154  A    between atoms: _369  and  _372
REMARK  155  A    between atoms: _375  and  _377
REMARK  156  A    between atoms: _377  and  _378
REMARK  157  A    between atoms: _380  and  _382
REMARK  158  A    between atoms: _382  and  _383
REMARK  159  A    between atoms: _385  and  _387
REMARK  160  A    between atoms: _387  and  _388
REMARK  161  A    between atoms: _387  and  _390
REMARK  162  A    between atoms: _390  and  _391
REMARK  163  A    between atoms: _394  and  _396
REMARK  164  A    between atoms: _396  and  _397
REMARK  165  A    between atoms: _396  and  _399
REMARK  166  A    between atoms: _399  and  _400
REMARK  167  A    between atoms: _400  and  _402
REMARK  168  A    between atoms: _402  and  MG_565
REMARK  169  A    between atoms: _403  and  _405
REMARK  170  A    between atoms: _405  and  _406
REMARK  171  A    between atoms: _405  and  _408
REMARK  172  A    between atoms: _408  and  _409
REMARK  173  A    between atoms: _414  and  _415
REMARK  174  A    between atoms: _417  and  _419
REMARK  175  A    between atoms: _419  and  _420
REMARK  176  A    between atoms: _419  and  _422
REMARK  177  A    between atoms: _422  and  _423
REMARK  178  A    between atoms: _426  and  _428
REMARK  179  A    between atoms: _428  and  _429
REMARK  180  A    between atoms: _428  and  _431
REMARK  181  A    between atoms: _431  and  _432
REMARK  182  A    between atoms: _432  and  _433
REMARK  183  A    between atoms: _436  and  _438
REMARK  184  A    between atoms: _438  and  _439
REMARK  185  A    between atoms: _438  and  _441
REMARK  186  A    between atoms: _441  and  _442
REMARK  187  A    between atoms: _442  and  _443
REMARK  188  A    between atoms: _443  and  _444
REMARK  189  A    between atoms: _453  and  _455
REMARK  190  A    between atoms: _455  and  _456
REMARK  191  A    between atoms: _455  and  _458
REMARK  192  A    between atoms: _458  and  _459
REMARK  193  A    between atoms: _464  and  _465
REMARK  194  A    between atoms: _467  and  _469
REMARK  195  A    between atoms: _469  and  _470
REMARK  196  A    between atoms: _469  and  _472
REMARK  197  A    between atoms: _472  and  _473
REMARK  198  A    between atoms: _473  and  _474
REMARK  199  A    between atoms: _474  and  _475
REMARK  200  A    between atoms: _484  and  _486
REMARK  201  A    between atoms: _486  and  _487
REMARK  202  A    between atoms: _486  and  _489
REMARK  203  A    between atoms: _489  and  _490
REMARK  204  A    between atoms: _493  and  _495
REMARK  205  A    between atoms: _495  and  _496
REMARK  206  A    between atoms: _498  and  _500
REMARK  207  A    between atoms: _500  and  _501
REMARK  208  A    between atoms: _500  and  _503
REMARK  209  A    between atoms: _503  and  _504
REMARK  210  A    between atoms: _507  and  _509
REMARK  211  A    between atoms: _509  and  _510
REMARK  212  A    between atoms: _509  and  _512
REMARK  213  A    between atoms: _512  and  _513
REMARK  214  A    between atoms: _518  and  _519
REMARK  215  A    between atoms: _521  and  _523
REMARK  216  A    between atoms: _523  and  _524
REMARK  217  A    between atoms: _523  and  _526
REMARK  218  A    between atoms: _526  and  _527
REMARK  219  A    between atoms: _533  and  _535
REMARK  220  A    between atoms: _535  and  _536
REMARK  221  A    between atoms: _535  and  _538
REMARK  222  A    between atoms: _538  and  _539
REMARK  223  A    between atoms: _545  and  _547
REMARK  224  A    between atoms: _547  and  _548
REMARK  225  A    between atoms: _547  and  _550
REMARK  226  A    between atoms: _550  and  _551
REMARK  227  A    between atoms: _554  and  _556
REMARK  228  A    between atoms: _556  and  _557
REMARK  229  A    between atoms: _556  and  _559
REMARK  230  A    between atoms: _559  and  _560
REMARK                            x       y       z     vdW  Elec       q    Type
REMARK                         _______ _______ _______ _____ _____    ______ ____
ROOT
ATOM      1  O   HOH     1      -4.827  18.664 112.949  0.00  0.00    +0.000 OA
ENDROOT
TORSDOF 0
REMARK  Name = ../refined-set-2016/4rhx/4rhx_pocket.pdb
REMARK  230 active torsions:
REMARK  status: ('A' for Active; 'I' for Inactive)
REMARK    1  A    between atoms: _1  and  _3
REMARK    2  A    between atoms: _3  and  _4
REMARK    3  A    between atoms: _3  and  _6
REMARK    4  A    between atoms: _6  and  _7
REMARK    5  A    between atoms: _10  and  _12
REMARK    6  A    between atoms: _12  and  _13
REMARK    7  A    between atoms: _12  and  _15
REMARK    8  A    between atoms: _18  and  _20
REMARK    9  A    between atoms: _20  and  _21
REMARK   10  A    between atoms: _20  and  _23
REMARK   11  A    between atoms: _23  and  _24
REMARK   12  A    between atoms: _27  and  _29
REMARK   13  A    between atoms: _29  and  _30
REMARK   14  A    between atoms: _29  and  _32
REMARK   15  A    between atoms: _32  and  _33
REMARK   16  A    between atoms: _33  and  _34
REMARK   17  A    between atoms: _34  and  _35
REMARK   18  A    between atoms: _35  and  _36
REMARK   19  A    between atoms: _40  and  _42
REMARK   20  A    between atoms: _42  and  _43
REMARK   21  A    between atoms: _45  and  _47
REMARK   22  A    between atoms: _47  and  _48
REMARK   23  A    between atoms: _51  and  _53
REMARK   24  A    between atoms: _53  and  _54
REMARK   25  A    between atoms: _53  and  _56
REMARK   26  A    between atoms: _59  and  _61
REMARK   27  A    between atoms: _61  and  _62
REMARK   28  A    between atoms: _61  and  _64
REMARK   29  A    between atoms: _64  and  _65
REMARK   30  A    between atoms: _65  and  _66
REMARK   31  A    between atoms: _68  and  _70
REMARK   32  A    between atoms: _70  and  _71
REMARK   33  A    between atoms: _74  and  _76
REMARK   34  A    between atoms: _76  and  _77
REMARK   35  A    between atoms: _76  and  _79
REMARK   36  A    between atoms: _82  and  _84
REMARK   37  A    between atoms: _84  and  _85
REMARK   38  A    between atoms: _84  and  _87
REMARK   39  A    between atoms: _87  and  _88
REMARK   40  A    between atoms: _90  and  _92
REMARK   41  A    between atoms: _92  and  _93
REMARK   42  A    between atoms: _92  and  _95
REMARK   43  A    between atoms: _95  and  _96
REMARK   44  A    between atoms: _98  and  _100
REMARK   45  A    between atoms: _100  and  _101
REMARK   46  A    between atoms: _100  and  _103
REMARK   47  A    between atoms: _103  and  _104
REMARK   48  A    between atoms: _109  and  _110
REMARK   49  A    between atoms: _112  and  _114
REMARK   50  A    between atoms: _114  and  _115
REMARK   51  A    between atoms: _117  and  _119
REMARK   52  A    between atoms: _119  and  _120
REMARK   53  A    between atoms: _119  and  _122
REMARK   54  A    between atoms: _125  and  _127
REMARK   55  A    between atoms: _127  and  _128
REMARK   56  A    between atoms: _127  and  _130
REMARK   57  A    between atoms: _130  and  _131
REMARK   58  A    between atoms: _131  and  _132
REMARK   59  A    between atoms: _132  and  _133
REMARK   60  A    between atoms: _142  and  _144
REMARK   61  A    between atoms: _144  and  _145
REMARK   62  A    between atoms: _144  and  _147
REMARK   63  A    between atoms: _147  and  _148
REMARK   64  A    between atoms: _151  and  _153
REMARK   65  A    between atoms: _153  and  _154
REMARK   66  A    between atoms: _153  and  _156
REMARK   67  A    between atoms: _156  and  _157
REMARK   68  A    between atoms: _157  and  _158
REMARK   69  A    between atoms: _161  and  _163
REMARK   70  A    between atoms: _163  and  _164
REMARK   71  A    between atoms: _163  and  _166
REMARK   72  A    between atoms: _166  and  _167
REMARK   73  A    between atoms: _170  and  _172
REMARK   74  A    between atoms: _172  and  _173
REMARK   75  A    between atoms: _172  and  _175
REMARK   76  A    between atoms: _178  and  _180
REMARK   77  A    between atoms: _180  and  _181
REMARK   78  A    between atoms: _180  and  _183
REMARK   79  A    between atoms: _186  and  _188
REMARK   80  A    between atoms: _188  and  _189
REMARK   81  A    between atoms: _188  and  _191
REMARK   82  A    between atoms: _191  and  _192
REMARK   83  A    between atoms: _195  and  _197
REMARK   84  A    between atoms: _197  and  _198
REMARK   85  A    between atoms: _197  and  _200
REMARK   86  A    between atoms: _200  and  _201
REMARK   87  A    between atoms: _203  and  _205
REMARK   88  A    between atoms: _205  and  _206
REMARK   89  A    between atoms: _208  and  _210
REMARK   90  A    between atoms: _210  and  _211
REMARK   91  A    between atoms: _210  and  _213
REMARK   92  A    between atoms: _213  and  _214
REMARK   93  A    between atoms: _217  and  _219
REMARK   94  A    between atoms: _219  and  _220
REMARK   95  A    between atoms: _219  and  _222
REMARK   96  A    between atoms: _222  and  _223
REMARK   97  A    between atoms: _226  and  _228
REMARK   98  A    between atoms: _228  and  _229
REMARK   99  A    between atoms: _228  and  _231
REMARK  100  A    between atoms: _231  and  _232
REMARK  101  A    between atoms: _235  and  _237
REMARK  102  A    between atoms: _237  and  _238
REMARK  103  A    between atoms: _237  and  _240
REMARK  104  A    between atoms: _240  and  _241
REMARK  105  A    between atoms: _243  and  _245
REMARK  106  A    between atoms: _245  and  _246
REMARK  107  A    between atoms: _245  and  _248
REMARK  108  A    between atoms: _248  and  _249
REMARK  109  A    between atoms: _259  and  _261
REMARK  110  A    between atoms: _261  and  _262
REMARK  111  A    between atoms: _261  and  _264
REMARK  112  A    between atoms: _264  and  _265
REMARK  113  A    between atoms: _268  and  _270
REMARK  114  A    between atoms: _270  and  _271
REMARK  115  A    between atoms: _270  and  _273
REMARK  116  A    between atoms: _273  and  _274
REMARK  117  A    between atoms: _277  and  _279
REMARK  118  A    between atoms: _279  and  _280
REMARK  119  A    between atoms: _279  and  _282
REMARK  120  A    between atoms: _282  and  _283
REMARK  121  A    between atoms: _283  and  _284
REMARK  122  A    between atoms: _284  and  _285
REMARK  123  A    between atoms: _285  and  _286
REMARK  124  A    between atoms: _290  and  _292
REMARK  125  A    between atoms: _292  and  _293
REMARK  126  A    between atoms: _292  and  _295
REMARK  127  A    between atoms: _295  and  _296
REMARK  128  A    between atoms: _299  and  _301
REMARK  129  A    between atoms: _301  and  _302
REMARK  130  A    between atoms: _305  and  _307
REMARK  131  A    between atoms: _307  and  _308
REMARK  132  A    between atoms: _311  and  _313
REMARK  133  A    between atoms: _313  and  _314
REMARK  134  A    between atoms: _313  and  _316
REMARK  135  A    between atoms: _316  and  _317
REMARK  136  A    between atoms: _321  and  _322
REMARK  137  A    between atoms: _327  and  _329
REMARK  138  A    between atoms: _329  and  _330
REMARK  139  A    between atoms: _329  and  _332
REMARK  140  A    between atoms: _332  and  _333
REMARK  141  A    between atoms: _338  and  _340
REMARK  142  A    between atoms: _340  and  _341
REMARK  143  A    between atoms: _340  and  _343
REMARK  144  A    between atoms: _343  and  _344
REMARK  145  A    between atoms: _347  and  _349
REMARK  146  A    between atoms: _349  and  _350
REMARK  147  A    between atoms: _349  and  _352
REMARK  148  A    between atoms: _352  and  _353
REMARK  149  A    between atoms: _359  and  _361
REMARK  150  A    between atoms: _361  and  _362
REMARK  151  A    between atoms: _361  and  _364
REMARK  152  A    between atoms: _367  and  _369
REMARK  153  A    between atoms: _369  and  _370
REMARK  154  A    between atoms: _369  and  _372
REMARK  155  A    between atoms: _375  and  _377
REMARK  156  A    between atoms: _377  and  _378
REMARK  157  A    between atoms: _380  and  _382
REMARK  158  A    between atoms: _382  and  _383
REMARK  159  A    between atoms: _385  and  _387
REMARK  160  A    between atoms: _387  and  _388
REMARK  161  A    between atoms: _387  and  _390
REMARK  162  A    between atoms: _390  and  _391
REMARK  163  A    between atoms: _394  and  _396
REMARK  164  A    between atoms: _396  and  _397
REMARK  165  A    between atoms: _396  and  _399
REMARK  166  A    between atoms: _399  and  _400
REMARK  167  A    between atoms: _400  and  _402
REMARK  168  A    between atoms: _402  and  MG_565
REMARK  169  A    between atoms: _403  and  _405
REMARK  170  A    between atoms: _405  and  _406
REMARK  171  A    between atoms: _405  and  _408
REMARK  172  A    between atoms: _408  and  _409
REMARK  173  A    between atoms: _414  and  _415
REMARK  174  A    between atoms: _417  and  _419
REMARK  175  A    between atoms: _419  and  _420
REMARK  176  A    between atoms: _419  and  _422
REMARK  177  A    between atoms: _422  and  _423
REMARK  178  A    between atoms: _426  and  _428
REMARK  179  A    between atoms: _428  and  _429
REMARK  180  A    between atoms: _428  and  _431
REMARK  181  A    between atoms: _431  and  _432
REMARK  182  A    between atoms: _432  and  _433
REMARK  183  A    between atoms: _436  and  _438
REMARK  184  A    between atoms: _438  and  _439
REMARK  185  A    between atoms: _438  and  _441
REMARK  186  A    between atoms: _441  and  _442
REMARK  187  A    between atoms: _442  and  _443
REMARK  188  A    between atoms: _443  and  _444
REMARK  189  A    between atoms: _453  and  _455
REMARK  190  A    between atoms: _455  and  _456
REMARK  191  A    between atoms: _455  and  _458
REMARK  192  A    between atoms: _458  and  _459
REMARK  193  A    between atoms: _464  and  _465
REMARK  194  A    between atoms: _467  and  _469
REMARK  195  A    between atoms: _469  and  _470
REMARK  196  A    between atoms: _469  and  _472
REMARK  197  A    between atoms: _472  and  _473
REMARK  198  A    between atoms: _473  and  _474
REMARK  199  A    between atoms: _474  and  _475
REMARK  200  A    between atoms: _484  and  _486
REMARK  201  A    between atoms: _486  and  _487
REMARK  202  A    between atoms: _486  and  _489
REMARK  203  A    between atoms: _489  and  _490
REMARK  204  A    between atoms: _493  and  _495
REMARK  205  A    between atoms: _495  and  _496
REMARK  206  A    between atoms: _498  and  _500
REMARK  207  A    between atoms: _500  and  _501
REMARK  208  A    between atoms: _500  and  _503
REMARK  209  A    between atoms: _503  and  _504
REMARK  210  A    between atoms: _507  and  _509
REMARK  211  A    between atoms: _509  and  _510
REMARK  212  A    between atoms: _509  and  _512
REMARK  213  A    between atoms: _512  and  _513
REMARK  214  A    between atoms: _518  and  _519
REMARK  215  A    between atoms: _521  and  _523
REMARK  216  A    between atoms: _523  and  _524
REMARK  217  A    between atoms: _523  and  _526
REMARK  218  A    between atoms: _526  and  _527
REMARK  219  A    between atoms: _533  and  _535
REMARK  220  A    between atoms: _535  and  _536
REMARK  221  A    between atoms: _535  and  _538
REMARK  222  A    between atoms: _538  and  _539
REMARK  223  A    between atoms: _545  and  _547
REMARK  224  A    between atoms: _547  and  _548
REMARK  225  A    between atoms: _547  and  _550
REMARK  226  A    between atoms: _550  and  _551
REMARK  227  A    between atoms: _554  and  _556
REMARK  228  A    between atoms: _556  and  _557
REMARK  229  A    between atoms: _556  and  _559
REMARK  230  A    between atoms: _559  and  _560
REMARK                            x       y       z     vdW  Elec       q    Type
REMARK                         _______ _______ _______ _____ _____    ______ ____
ROOT
ATOM      1  O   HOH     1      -4.261   0.591 119.279  0.00  0.00    +0.000 OA
ENDROOT
TORSDOF 0
REMARK  Name = ../refined-set-2016/4rhx/4rhx_pocket.pdb
REMARK  230 active torsions:
REMARK  status: ('A' for Active; 'I' for Inactive)
REMARK    1  A    between atoms: _1  and  _3
REMARK    2  A    between atoms: _3  and  _4
REMARK    3  A    between atoms: _3  and  _6
REMARK    4  A    between atoms: _6  and  _7
REMARK    5  A    between atoms: _10  and  _12
REMARK    6  A    between atoms: _12  and  _13
REMARK    7  A    between atoms: _12  and  _15
REMARK    8  A    between atoms: _18  and  _20
REMARK    9  A    between atoms: _20  and  _21
REMARK   10  A    between atoms: _20  and  _23
REMARK   11  A    between atoms: _23  and  _24
REMARK   12  A    between atoms: _27  and  _29
REMARK   13  A    between atoms: _29  and  _30
REMARK   14  A    between atoms: _29  and  _32
REMARK   15  A    between atoms: _32  and  _33
REMARK   16  A    between atoms: _33  and  _34
REMARK   17  A    between atoms: _34  and  _35
REMARK   18  A    between atoms: _35  and  _36
REMARK   19  A    between atoms: _40  and  _42
REMARK   20  A    between atoms: _42  and  _43
REMARK   21  A    between atoms: _45  and  _47
REMARK   22  A    between atoms: _47  and  _48
REMARK   23  A    between atoms: _51  and  _53
REMARK   24  A    between atoms: _53  and  _54
REMARK   25  A    between atoms: _53  and  _56
REMARK   26  A    between atoms: _59  and  _61
REMARK   27  A    between atoms: _61  and  _62
REMARK   28  A    between atoms: _61  and  _64
REMARK   29  A    between atoms: _64  and  _65
REMARK   30  A    between atoms: _65  and  _66
REMARK   31  A    between atoms: _68  and  _70
REMARK   32  A    between atoms: _70  and  _71
REMARK   33  A    between atoms: _74  and  _76
REMARK   34  A    between atoms: _76  and  _77
REMARK   35  A    between atoms: _76  and  _79
REMARK   36  A    between atoms: _82  and  _84
REMARK   37  A    between atoms: _84  and  _85
REMARK   38  A    between atoms: _84  and  _87
REMARK   39  A    between atoms: _87  and  _88
REMARK   40  A    between atoms: _90  and  _92
REMARK   41  A    between atoms: _92  and  _93
REMARK   42  A    between atoms: _92  and  _95
REMARK   43  A    between atoms: _95  and  _96
REMARK   44  A    between atoms: _98  and  _100
REMARK   45  A    between atoms: _100  and  _101
REMARK   46  A    between atoms: _100  and  _103
REMARK   47  A    between atoms: _103  and  _104
REMARK   48  A    between atoms: _109  and  _110
REMARK   49  A    between atoms: _112  and  _114
REMARK   50  A    between atoms: _114  and  _115
REMARK   51  A    between atoms: _117  and  _119
REMARK   52  A    between atoms: _119  and  _120
REMARK   53  A    between atoms: _119  and  _122
REMARK   54  A    between atoms: _125  and  _127
REMARK   55  A    between atoms: _127  and  _128
REMARK   56  A    between atoms: _127  and  _130
REMARK   57  A    between atoms: _130  and  _131
REMARK   58  A    between atoms: _131  and  _132
REMARK   59  A    between atoms: _132  and  _133
REMARK   60  A    between atoms: _142  and  _144
REMARK   61  A    between atoms: _144  and  _145
REMARK   62  A    between atoms: _144  and  _147
REMARK   63  A    between atoms: _147  and  _148
REMARK   64  A    between atoms: _151  and  _153
REMARK   65  A    between atoms: _153  and  _154
REMARK   66  A    between atoms: _153  and  _156
REMARK   67  A    between atoms: _156  and  _157
REMARK   68  A    between atoms: _157  and  _158
REMARK   69  A    between atoms: _161  and  _163
REMARK   70  A    between atoms: _163  and  _164
REMARK   71  A    between atoms: _163  and  _166
REMARK   72  A    between atoms: _166  and  _167
REMARK   73  A    between atoms: _170  and  _172
REMARK   74  A    between atoms: _172  and  _173
REMARK   75  A    between atoms: _172  and  _175
REMARK   76  A    between atoms: _178  and  _180
REMARK   77  A    between atoms: _180  and  _181
REMARK   78  A    between atoms: _180  and  _183
REMARK   79  A    between atoms: _186  and  _188
REMARK   80  A    between atoms: _188  and  _189
REMARK   81  A    between atoms: _188  and  _191
REMARK   82  A    between atoms: _191  and  _192
REMARK   83  A    between atoms: _195  and  _197
REMARK   84  A    between atoms: _197  and  _198
REMARK   85  A    between atoms: _197  and  _200
REMARK   86  A    between atoms: _200  and  _201
REMARK   87  A    between atoms: _203  and  _205
REMARK   88  A    between atoms: _205  and  _206
REMARK   89  A    between atoms: _208  and  _210
REMARK   90  A    between atoms: _210  and  _211
REMARK   91  A    between atoms: _210  and  _213
REMARK   92  A    between atoms: _213  and  _214
REMARK   93  A    between atoms: _217  and  _219
REMARK   94  A    between atoms: _219  and  _220
REMARK   95  A    between atoms: _219  and  _222
REMARK   96  A    between atoms: _222  and  _223
REMARK   97  A    between atoms: _226  and  _228
REMARK   98  A    between atoms: _228  and  _229
REMARK   99  A    between atoms: _228  and  _231
REMARK  100  A    between atoms: _231  and  _232
REMARK  101  A    between atoms: _235  and  _237
REMARK  102  A    between atoms: _237  and  _238
REMARK  103  A    between atoms: _237  and  _240
REMARK  104  A    between atoms: _240  and  _241
REMARK  105  A    between atoms: _243  and  _245
REMARK  106  A    between atoms: _245  and  _246
REMARK  107  A    between atoms: _245  and  _248
REMARK  108  A    between atoms: _248  and  _249
REMARK  109  A    between atoms: _259  and  _261
REMARK  110  A    between atoms: _261  and  _262
REMARK  111  A    between atoms: _261  and  _264
REMARK  112  A    between atoms: _264  and  _265
REMARK  113  A    between atoms: _268  and  _270
REMARK  114  A    between atoms: _270  and  _271
REMARK  115  A    between atoms: _270  and  _273
REMARK  116  A    between atoms: _273  and  _274
REMARK  117  A    between atoms: _277  and  _279
REMARK  118  A    between atoms: _279  and  _280
REMARK  119  A    between atoms: _279  and  _282
REMARK  120  A    between atoms: _282  and  _283
REMARK  121  A    between atoms: _283  and  _284
REMARK  122  A    between atoms: _284  and  _285
REMARK  123  A    between atoms: _285  and  _286
REMARK  124  A    between atoms: _290  and  _292
REMARK  125  A    between atoms: _292  and  _293
REMARK  126  A    between atoms: _292  and  _295
REMARK  127  A    between atoms: _295  and  _296
REMARK  128  A    between atoms: _299  and  _301
REMARK  129  A    between atoms: _301  and  _302
REMARK  130  A    between atoms: _305  and  _307
REMARK  131  A    between atoms: _307  and  _308
REMARK  132  A    between atoms: _311  and  _313
REMARK  133  A    between atoms: _313  and  _314
REMARK  134  A    between atoms: _313  and  _316
REMARK  135  A    between atoms: _316  and  _317
REMARK  136  A    between atoms: _321  and  _322
REMARK  137  A    between atoms: _327  and  _329
REMARK  138  A    between atoms: _329  and  _330
REMARK  139  A    between atoms: _329  and  _332
REMARK  140  A    between atoms: _332  and  _333
REMARK  141  A    between atoms: _338  and  _340
REMARK  142  A    between atoms: _340  and  _341
REMARK  143  A    between atoms: _340  and  _343
REMARK  144  A    between atoms: _343  and  _344
REMARK  145  A    between atoms: _347  and  _349
REMARK  146  A    between atoms: _349  and  _350
REMARK  147  A    between atoms: _349  and  _352
REMARK  148  A    between atoms: _352  and  _353
REMARK  149  A    between atoms: _359  and  _361
REMARK  150  A    between atoms: _361  and  _362
REMARK  151  A    between atoms: _361  and  _364
REMARK  152  A    between atoms: _367  and  _369
REMARK  153  A    between atoms: _369  and  _370
REMARK  154  A    between atoms: _369  and  _372
REMARK  155  A    between atoms: _375  and  _377
REMARK  156  A    between atoms: _377  and  _378
REMARK  157  A    between atoms: _380  and  _382
REMARK  158  A    between atoms: _382  and  _383
REMARK  159  A    between atoms: _385  and  _387
REMARK  160  A    between atoms: _387  and  _388
REMARK  161  A    between atoms: _387  and  _390
REMARK  162  A    between atoms: _390  and  _391
REMARK  163  A    between atoms: _394  and  _396
REMARK  164  A    between atoms: _396  and  _397
REMARK  165  A    between atoms: _396  and  _399
REMARK  166  A    between atoms: _399  and  _400
REMARK  167  A    between atoms: _400  and  _402
REMARK  168  A    between atoms: _402  and  MG_565
REMARK  169  A    between atoms: _403  and  _405
REMARK  170  A    between atoms: _405  and  _406
REMARK  171  A    between atoms: _405  and  _408
REMARK  172  A    between atoms: _408  and  _409
REMARK  173  A    between atoms: _414  and  _415
REMARK  174  A    between atoms: _417  and  _419
REMARK  175  A    between atoms: _419  and  _420
REMARK  176  A    between atoms: _419  and  _422
REMARK  177  A    between atoms: _422  and  _423
REMARK  178  A    between atoms: _426  and  _428
REMARK  179  A    between atoms: _428  and  _429
REMARK  180  A    between atoms: _428  and  _431
REMARK  181  A    between atoms: _431  and  _432
REMARK  182  A    between atoms: _432  and  _433
REMARK  183  A    between atoms: _436  and  _438
REMARK  184  A    between atoms: _438  and  _439
REMARK  185  A    between atoms: _438  and  _441
REMARK  186  A    between atoms: _441  and  _442
REMARK  187  A    between atoms: _442  and  _443
REMARK  188  A    between atoms: _443  and  _444
REMARK  189  A    between atoms: _453  and  _455
REMARK  190  A    between atoms: _455  and  _456
REMARK  191  A    between atoms: _455  and  _458
REMARK  192  A    between atoms: _458  and  _459
REMARK  193  A    between atoms: _464  and  _465
REMARK  194  A    between atoms: _467  and  _469
REMARK  195  A    between atoms: _469  and  _470
REMARK  196  A    between atoms: _469  and  _472
REMARK  197  A    between atoms: _472  and  _473
REMARK  198  A    between atoms: _473  and  _474
REMARK  199  A    between atoms: _474  and  _475
REMARK  200  A    between atoms: _484  and  _486
REMARK  201  A    between atoms: _486  and  _487
REMARK  202  A    between atoms: _486  and  _489
REMARK  203  A    between atoms: _489  and  _490
REMARK  204  A    between atoms: _493  and  _495
REMARK  205  A    between atoms: _495  and  _496
REMARK  206  A    between atoms: _498  and  _500
REMARK  207  A    between atoms: _500  and  _501
REMARK  208  A    between atoms: _500  and  _503
REMARK  209  A    between atoms: _503  and  _504
REMARK  210  A    between atoms: _507  and  _509
REMARK  211  A    between atoms: _509  and  _510
REMARK  212  A    between atoms: _509  and  _512
REMARK  213  A    between atoms: _512  and  _513
REMARK  214  A    between atoms: _518  and  _519
REMARK  215  A    between atoms: _521  and  _523
REMARK  216  A    between atoms: _523  and  _524
REMARK  217  A    between atoms: _523  and  _526
REMARK  218  A    between atoms: _526  and  _527
REMARK  219  A    between atoms: _533  and  _535
REMARK  220  A    between atoms: _535  and  _536
REMARK  221  A    between atoms: _535  and  _538
REMARK  222  A    between atoms: _538  and  _539
REMARK  223  A    between atoms: _545  and  _547
REMARK  224  A    between atoms: _547  and  _548
REMARK  225  A    between atoms: _547  and  _550
REMARK  226  A    between atoms: _550  and  _551
REMARK  227  A    between atoms: _554  and  _556
REMARK  228  A    between atoms: _556  and  _557
REMARK  229  A    between atoms: _556  and  _559
REMARK  230  A    between atoms: _559  and  _560
REMARK                            x       y       z     vdW  Elec       q    Type
REMARK                         _______ _______ _______ _____ _____    ______ ____
ROOT
ATOM      1  O   HOH     1      -5.692   8.436 126.437  0.00  0.00    +0.000 OA
ENDROOT
TORSDOF 0
REMARK  Name = ../refined-set-2016/4rhx/4rhx_pocket.pdb
REMARK  230 active torsions:
REMARK  status: ('A' for Active; 'I' for Inactive)
REMARK    1  A    between atoms: _1  and  _3
REMARK    2  A    between atoms: _3  and  _4
REMARK    3  A    between atoms: _3  and  _6
REMARK    4  A    between atoms: _6  and  _7
REMARK    5  A    between atoms: _10  and  _12
REMARK    6  A    between atoms: _12  and  _13
REMARK    7  A    between atoms: _12  and  _15
REMARK    8  A    between atoms: _18  and  _20
REMARK    9  A    between atoms: _20  and  _21
REMARK   10  A    between atoms: _20  and  _23
REMARK   11  A    between atoms: _23  and  _24
REMARK   12  A    between atoms: _27  and  _29
REMARK   13  A    between atoms: _29  and  _30
REMARK   14  A    between atoms: _29  and  _32
REMARK   15  A    between atoms: _32  and  _33
REMARK   16  A    between atoms: _33  and  _34
REMARK   17  A    between atoms: _34  and  _35
REMARK   18  A    between atoms: _35  and  _36
REMARK   19  A    between atoms: _40  and  _42
REMARK   20  A    between atoms: _42  and  _43
REMARK   21  A    between atoms: _45  and  _47
REMARK   22  A    between atoms: _47  and  _48
REMARK   23  A    between atoms: _51  and  _53
REMARK   24  A    between atoms: _53  and  _54
REMARK   25  A    between atoms: _53  and  _56
REMARK   26  A    between atoms: _59  and  _61
REMARK   27  A    between atoms: _61  and  _62
REMARK   28  A    between atoms: _61  and  _64
REMARK   29  A    between atoms: _64  and  _65
REMARK   30  A    between atoms: _65  and  _66
REMARK   31  A    between atoms: _68  and  _70
REMARK   32  A    between atoms: _70  and  _71
REMARK   33  A    between atoms: _74  and  _76
REMARK   34  A    between atoms: _76  and  _77
REMARK   35  A    between atoms: _76  and  _79
REMARK   36  A    between atoms: _82  and  _84
REMARK   37  A    between atoms: _84  and  _85
REMARK   38  A    between atoms: _84  and  _87
REMARK   39  A    between atoms: _87  and  _88
REMARK   40  A    between atoms: _90  and  _92
REMARK   41  A    between atoms: _92  and  _93
REMARK   42  A    between atoms: _92  and  _95
REMARK   43  A    between atoms: _95  and  _96
REMARK   44  A    between atoms: _98  and  _100
REMARK   45  A    between atoms: _100  and  _101
REMARK   46  A    between atoms: _100  and  _103
REMARK   47  A    between atoms: _103  and  _104
REMARK   48  A    between atoms: _109  and  _110
REMARK   49  A    between atoms: _112  and  _114
REMARK   50  A    between atoms: _114  and  _115
REMARK   51  A    between atoms: _117  and  _119
REMARK   52  A    between atoms: _119  and  _120
REMARK   53  A    between atoms: _119  and  _122
REMARK   54  A    between atoms: _125  and  _127
REMARK   55  A    between atoms: _127  and  _128
REMARK   56  A    between atoms: _127  and  _130
REMARK   57  A    between atoms: _130  and  _131
REMARK   58  A    between atoms: _131  and  _132
REMARK   59  A    between atoms: _132  and  _133
REMARK   60  A    between atoms: _142  and  _144
REMARK   61  A    between atoms: _144  and  _145
REMARK   62  A    between atoms: _144  and  _147
REMARK   63  A    between atoms: _147  and  _148
REMARK   64  A    between atoms: _151  and  _153
REMARK   65  A    between atoms: _153  and  _154
REMARK   66  A    between atoms: _153  and  _156
REMARK   67  A    between atoms: _156  and  _157
REMARK   68  A    between atoms: _157  and  _158
REMARK   69  A    between atoms: _161  and  _163
REMARK   70  A    between atoms: _163  and  _164
REMARK   71  A    between atoms: _163  and  _166
REMARK   72  A    between atoms: _166  and  _167
REMARK   73  A    between atoms: _170  and  _172
REMARK   74  A    between atoms: _172  and  _173
REMARK   75  A    between atoms: _172  and  _175
REMARK   76  A    between atoms: _178  and  _180
REMARK   77  A    between atoms: _180  and  _181
REMARK   78  A    between atoms: _180  and  _183
REMARK   79  A    between atoms: _186  and  _188
REMARK   80  A    between atoms: _188  and  _189
REMARK   81  A    between atoms: _188  and  _191
REMARK   82  A    between atoms: _191  and  _192
REMARK   83  A    between atoms: _195  and  _197
REMARK   84  A    between atoms: _197  and  _198
REMARK   85  A    between atoms: _197  and  _200
REMARK   86  A    between atoms: _200  and  _201
REMARK   87  A    between atoms: _203  and  _205
REMARK   88  A    between atoms: _205  and  _206
REMARK   89  A    between atoms: _208  and  _210
REMARK   90  A    between atoms: _210  and  _211
REMARK   91  A    between atoms: _210  and  _213
REMARK   92  A    between atoms: _213  and  _214
REMARK   93  A    between atoms: _217  and  _219
REMARK   94  A    between atoms: _219  and  _220
REMARK   95  A    between atoms: _219  and  _222
REMARK   96  A    between atoms: _222  and  _223
REMARK   97  A    between atoms: _226  and  _228
REMARK   98  A    between atoms: _228  and  _229
REMARK   99  A    between atoms: _228  and  _231
REMARK  100  A    between atoms: _231  and  _232
REMARK  101  A    between atoms: _235  and  _237
REMARK  102  A    between atoms: _237  and  _238
REMARK  103  A    between atoms: _237  and  _240
REMARK  104  A    between atoms: _240  and  _241
REMARK  105  A    between atoms: _243  and  _245
REMARK  106  A    between atoms: _245  and  _246
REMARK  107  A    between atoms: _245  and  _248
REMARK  108  A    between atoms: _248  and  _249
REMARK  109  A    between atoms: _259  and  _261
REMARK  110  A    between atoms: _261  and  _262
REMARK  111  A    between atoms: _261  and  _264
REMARK  112  A    between atoms: _264  and  _265
REMARK  113  A    between atoms: _268  and  _270
REMARK  114  A    between atoms: _270  and  _271
REMARK  115  A    between atoms: _270  and  _273
REMARK  116  A    between atoms: _273  and  _274
REMARK  117  A    between atoms: _277  and  _279
REMARK  118  A    between atoms: _279  and  _280
REMARK  119  A    between atoms: _279  and  _282
REMARK  120  A    between atoms: _282  and  _283
REMARK  121  A    between atoms: _283  and  _284
REMARK  122  A    between atoms: _284  and  _285
REMARK  123  A    between atoms: _285  and  _286
REMARK  124  A    between atoms: _290  and  _292
REMARK  125  A    between atoms: _292  and  _293
REMARK  126  A    between atoms: _292  and  _295
REMARK  127  A    between atoms: _295  and  _296
REMARK  128  A    between atoms: _299  and  _301
REMARK  129  A    between atoms: _301  and  _302
REMARK  130  A    between atoms: _305  and  _307
REMARK  131  A    between atoms: _307  and  _308
REMARK  132  A    between atoms: _311  and  _313
REMARK  133  A    between atoms: _313  and  _314
REMARK  134  A    between atoms: _313  and  _316
REMARK  135  A    between atoms: _316  and  _317
REMARK  136  A    between atoms: _321  and  _322
REMARK  137  A    between atoms: _327  and  _329
REMARK  138  A    between atoms: _329  and  _330
REMARK  139  A    between atoms: _329  and  _332
REMARK  140  A    between atoms: _332  and  _333
REMARK  141  A    between atoms: _338  and  _340
REMARK  142  A    between atoms: _340  and  _341
REMARK  143  A    between atoms: _340  and  _343
REMARK  144  A    between atoms: _343  and  _344
REMARK  145  A    between atoms: _347  and  _349
REMARK  146  A    between atoms: _349  and  _350
REMARK  147  A    between atoms: _349  and  _352
REMARK  148  A    between atoms: _352  and  _353
REMARK  149  A    between atoms: _359  and  _361
REMARK  150  A    between atoms: _361  and  _362
REMARK  151  A    between atoms: _361  and  _364
REMARK  152  A    between atoms: _367  and  _369
REMARK  153  A    between atoms: _369  and  _370
REMARK  154  A    between atoms: _369  and  _372
REMARK  155  A    between atoms: _375  and  _377
REMARK  156  A    between atoms: _377  and  _378
REMARK  157  A    between atoms: _380  and  _382
REMARK  158  A    between atoms: _382  and  _383
REMARK  159  A    between atoms: _385  and  _387
REMARK  160  A    between atoms: _387  and  _388
REMARK  161  A    between atoms: _387  and  _390
REMARK  162  A    between atoms: _390  and  _391
REMARK  163  A    between atoms: _394  and  _396
REMARK  164  A    between atoms: _396  and  _397
REMARK  165  A    between atoms: _396  and  _399
REMARK  166  A    between atoms: _399  and  _400
REMARK  167  A    between atoms: _400  and  _402
REMARK  168  A    between atoms: _402  and  MG_565
REMARK  169  A    between atoms: _403  and  _405
REMARK  170  A    between atoms: _405  and  _406
REMARK  171  A    between atoms: _405  and  _408
REMARK  172  A    between atoms: _408  and  _409
REMARK  173  A    between atoms: _414  and  _415
REMARK  174  A    between atoms: _417  and  _419
REMARK  175  A    between atoms: _419  and  _420
REMARK  176  A    between atoms: _419  and  _422
REMARK  177  A    between atoms: _422  and  _423
REMARK  178  A    between atoms: _426  and  _428
REMARK  179  A    between atoms: _428  and  _429
REMARK  180  A    between atoms: _428  and  _431
REMARK  181  A    between atoms: _431  and  _432
REMARK  182  A    between atoms: _432  and  _433
REMARK  183  A    between atoms: _436  and  _438
REMARK  184  A    between atoms: _438  and  _439
REMARK  185  A    between atoms: _438  and  _441
REMARK  186  A    between atoms: _441  and  _442
REMARK  187  A    between atoms: _442  and  _443
REMARK  188  A    between atoms: _443  and  _444
REMARK  189  A    between atoms: _453  and  _455
REMARK  190  A    between atoms: _455  and  _456
REMARK  191  A    between atoms: _455  and  _458
REMARK  192  A    between atoms: _458  and  _459
REMARK  193  A    between atoms: _464  and  _465
REMARK  194  A    between atoms: _467  and  _469
REMARK  195  A    between atoms: _469  and  _470
REMARK  196  A    between atoms: _469  and  _472
REMARK  197  A    between atoms: _472  and  _473
REMARK  198  A    between atoms: _473  and  _474
REMARK  199  A    between atoms: _474  and  _475
REMARK  200  A    between atoms: _484  and  _486
REMARK  201  A    between atoms: _486  and  _487
REMARK  202  A    between atoms: _486  and  _489
REMARK  203  A    between atoms: _489  and  _490
REMARK  204  A    between atoms: _493  and  _495
REMARK  205  A    between atoms: _495  and  _496
REMARK  206  A    between atoms: _498  and  _500
REMARK  207  A    between atoms: _500  and  _501
REMARK  208  A    between atoms: _500  and  _503
REMARK  209  A    between atoms: _503  and  _504
REMARK  210  A    between atoms: _507  and  _509
REMARK  211  A    between atoms: _509  and  _510
REMARK  212  A    between atoms: _509  and  _512
REMARK  213  A    between atoms: _512  and  _513
REMARK  214  A    between atoms: _518  and  _519
REMARK  215  A    between atoms: _521  and  _523
REMARK  216  A    between atoms: _523  and  _524
REMARK  217  A    between atoms: _523  and  _526
REMARK  218  A    between atoms: _526  and  _527
REMARK  219  A    between atoms: _533  and  _535
REMARK  220  A    between atoms: _535  and  _536
REMARK  221  A    between atoms: _535  and  _538
REMARK  222  A    between atoms: _538  and  _539
REMARK  223  A    between atoms: _545  and  _547
REMARK  224  A    between atoms: _547  and  _548
REMARK  225  A    between atoms: _547  and  _550
REMARK  226  A    between atoms: _550  and  _551
REMARK  227  A    between atoms: _554  and  _556
REMARK  228  A    between atoms: _556  and  _557
REMARK  229  A    between atoms: _556  and  _559
REMARK  230  A    between atoms: _559  and  _560
REMARK                            x       y       z     vdW  Elec       q    Type
REMARK                         _______ _______ _______ _____ _____    ______ ____
ROOT
ATOM      1  O   HOH     1      -9.416  14.569 120.560  0.00  0.00    +0.000 OA
ENDROOT
TORSDOF 0
REMARK  Name = ../refined-set-2016/4rhx/4rhx_pocket.pdb
REMARK  230 active torsions:
REMARK  status: ('A' for Active; 'I' for Inactive)
REMARK    1  A    between atoms: _1  and  _3
REMARK    2  A    between atoms: _3  and  _4
REMARK    3  A    between atoms: _3  and  _6
REMARK    4  A    between atoms: _6  and  _7
REMARK    5  A    between atoms: _10  and  _12
REMARK    6  A    between atoms: _12  and  _13
REMARK    7  A    between atoms: _12  and  _15
REMARK    8  A    between atoms: _18  and  _20
REMARK    9  A    between atoms: _20  and  _21
REMARK   10  A    between atoms: _20  and  _23
REMARK   11  A    between atoms: _23  and  _24
REMARK   12  A    between atoms: _27  and  _29
REMARK   13  A    between atoms: _29  and  _30
REMARK   14  A    between atoms: _29  and  _32
REMARK   15  A    between atoms: _32  and  _33
REMARK   16  A    between atoms: _33  and  _34
REMARK   17  A    between atoms: _34  and  _35
REMARK   18  A    between atoms: _35  and  _36
REMARK   19  A    between atoms: _40  and  _42
REMARK   20  A    between atoms: _42  and  _43
REMARK   21  A    between atoms: _45  and  _47
REMARK   22  A    between atoms: _47  and  _48
REMARK   23  A    between atoms: _51  and  _53
REMARK   24  A    between atoms: _53  and  _54
REMARK   25  A    between atoms: _53  and  _56
REMARK   26  A    between atoms: _59  and  _61
REMARK   27  A    between atoms: _61  and  _62
REMARK   28  A    between atoms: _61  and  _64
REMARK   29  A    between atoms: _64  and  _65
REMARK   30  A    between atoms: _65  and  _66
REMARK   31  A    between atoms: _68  and  _70
REMARK   32  A    between atoms: _70  and  _71
REMARK   33  A    between atoms: _74  and  _76
REMARK   34  A    between atoms: _76  and  _77
REMARK   35  A    between atoms: _76  and  _79
REMARK   36  A    between atoms: _82  and  _84
REMARK   37  A    between atoms: _84  and  _85
REMARK   38  A    between atoms: _84  and  _87
REMARK   39  A    between atoms: _87  and  _88
REMARK   40  A    between atoms: _90  and  _92
REMARK   41  A    between atoms: _92  and  _93
REMARK   42  A    between atoms: _92  and  _95
REMARK   43  A    between atoms: _95  and  _96
REMARK   44  A    between atoms: _98  and  _100
REMARK   45  A    between atoms: _100  and  _101
REMARK   46  A    between atoms: _100  and  _103
REMARK   47  A    between atoms: _103  and  _104
REMARK   48  A    between atoms: _109  and  _110
REMARK   49  A    between atoms: _112  and  _114
REMARK   50  A    between atoms: _114  and  _115
REMARK   51  A    between atoms: _117  and  _119
REMARK   52  A    between atoms: _119  and  _120
REMARK   53  A    between atoms: _119  and  _122
REMARK   54  A    between atoms: _125  and  _127
REMARK   55  A    between atoms: _127  and  _128
REMARK   56  A    between atoms: _127  and  _130
REMARK   57  A    between atoms: _130  and  _131
REMARK   58  A    between atoms: _131  and  _132
REMARK   59  A    between atoms: _132  and  _133
REMARK   60  A    between atoms: _142  and  _144
REMARK   61  A    between atoms: _144  and  _145
REMARK   62  A    between atoms: _144  and  _147
REMARK   63  A    between atoms: _147  and  _148
REMARK   64  A    between atoms: _151  and  _153
REMARK   65  A    between atoms: _153  and  _154
REMARK   66  A    between atoms: _153  and  _156
REMARK   67  A    between atoms: _156  and  _157
REMARK   68  A    between atoms: _157  and  _158
REMARK   69  A    between atoms: _161  and  _163
REMARK   70  A    between atoms: _163  and  _164
REMARK   71  A    between atoms: _163  and  _166
REMARK   72  A    between atoms: _166  and  _167
REMARK   73  A    between atoms: _170  and  _172
REMARK   74  A    between atoms: _172  and  _173
REMARK   75  A    between atoms: _172  and  _175
REMARK   76  A    between atoms: _178  and  _180
REMARK   77  A    between atoms: _180  and  _181
REMARK   78  A    between atoms: _180  and  _183
REMARK   79  A    between atoms: _186  and  _188
REMARK   80  A    between atoms: _188  and  _189
REMARK   81  A    between atoms: _188  and  _191
REMARK   82  A    between atoms: _191  and  _192
REMARK   83  A    between atoms: _195  and  _197
REMARK   84  A    between atoms: _197  and  _198
REMARK   85  A    between atoms: _197  and  _200
REMARK   86  A    between atoms: _200  and  _201
REMARK   87  A    between atoms: _203  and  _205
REMARK   88  A    between atoms: _205  and  _206
REMARK   89  A    between atoms: _208  and  _210
REMARK   90  A    between atoms: _210  and  _211
REMARK   91  A    between atoms: _210  and  _213
REMARK   92  A    between atoms: _213  and  _214
REMARK   93  A    between atoms: _217  and  _219
REMARK   94  A    between atoms: _219  and  _220
REMARK   95  A    between atoms: _219  and  _222
REMARK   96  A    between atoms: _222  and  _223
REMARK   97  A    between atoms: _226  and  _228
REMARK   98  A    between atoms: _228  and  _229
REMARK   99  A    between atoms: _228  and  _231
REMARK  100  A    between atoms: _231  and  _232
REMARK  101  A    between atoms: _235  and  _237
REMARK  102  A    between atoms: _237  and  _238
REMARK  103  A    between atoms: _237  and  _240
REMARK  104  A    between atoms: _240  and  _241
REMARK  105  A    between atoms: _243  and  _245
REMARK  106  A    between atoms: _245  and  _246
REMARK  107  A    between atoms: _245  and  _248
REMARK  108  A    between atoms: _248  and  _249
REMARK  109  A    between atoms: _259  and  _261
REMARK  110  A    between atoms: _261  and  _262
REMARK  111  A    between atoms: _261  and  _264
REMARK  112  A    between atoms: _264  and  _265
REMARK  113  A    between atoms: _268  and  _270
REMARK  114  A    between atoms: _270  and  _271
REMARK  115  A    between atoms: _270  and  _273
REMARK  116  A    between atoms: _273  and  _274
REMARK  117  A    between atoms: _277  and  _279
REMARK  118  A    between atoms: _279  and  _280
REMARK  119  A    between atoms: _279  and  _282
REMARK  120  A    between atoms: _282  and  _283
REMARK  121  A    between atoms: _283  and  _284
REMARK  122  A    between atoms: _284  and  _285
REMARK  123  A    between atoms: _285  and  _286
REMARK  124  A    between atoms: _290  and  _292
REMARK  125  A    between atoms: _292  and  _293
REMARK  126  A    between atoms: _292  and  _295
REMARK  127  A    between atoms: _295  and  _296
REMARK  128  A    between atoms: _299  and  _301
REMARK  129  A    between atoms: _301  and  _302
REMARK  130  A    between atoms: _305  and  _307
REMARK  131  A    between atoms: _307  and  _308
REMARK  132  A    between atoms: _311  and  _313
REMARK  133  A    between atoms: _313  and  _314
REMARK  134  A    between atoms: _313  and  _316
REMARK  135  A    between atoms: _316  and  _317
REMARK  136  A    between atoms: _321  and  _322
REMARK  137  A    between atoms: _327  and  _329
REMARK  138  A    between atoms: _329  and  _330
REMARK  139  A    between atoms: _329  and  _332
REMARK  140  A    between atoms: _332  and  _333
REMARK  141  A    between atoms: _338  and  _340
REMARK  142  A    between atoms: _340  and  _341
REMARK  143  A    between atoms: _340  and  _343
REMARK  144  A    between atoms: _343  and  _344
REMARK  145  A    between atoms: _347  and  _349
REMARK  146  A    between atoms: _349  and  _350
REMARK  147  A    between atoms: _349  and  _352
REMARK  148  A    between atoms: _352  and  _353
REMARK  149  A    between atoms: _359  and  _361
REMARK  150  A    between atoms: _361  and  _362
REMARK  151  A    between atoms: _361  and  _364
REMARK  152  A    between atoms: _367  and  _369
REMARK  153  A    between atoms: _369  and  _370
REMARK  154  A    between atoms: _369  and  _372
REMARK  155  A    between atoms: _375  and  _377
REMARK  156  A    between atoms: _377  and  _378
REMARK  157  A    between atoms: _380  and  _382
REMARK  158  A    between atoms: _382  and  _383
REMARK  159  A    between atoms: _385  and  _387
REMARK  160  A    between atoms: _387  and  _388
REMARK  161  A    between atoms: _387  and  _390
REMARK  162  A    between atoms: _390  and  _391
REMARK  163  A    between atoms: _394  and  _396
REMARK  164  A    between atoms: _396  and  _397
REMARK  165  A    between atoms: _396  and  _399
REMARK  166  A    between atoms: _399  and  _400
REMARK  167  A    between atoms: _400  and  _402
REMARK  168  A    between atoms: _402  and  MG_565
REMARK  169  A    between atoms: _403  and  _405
REMARK  170  A    between atoms: _405  and  _406
REMARK  171  A    between atoms: _405  and  _408
REMARK  172  A    between atoms: _408  and  _409
REMARK  173  A    between atoms: _414  and  _415
REMARK  174  A    between atoms: _417  and  _419
REMARK  175  A    between atoms: _419  and  _420
REMARK  176  A    between atoms: _419  and  _422
REMARK  177  A    between atoms: _422  and  _423
REMARK  178  A    between atoms: _426  and  _428
REMARK  179  A    between atoms: _428  and  _429
REMARK  180  A    between atoms: _428  and  _431
REMARK  181  A    between atoms: _431  and  _432
REMARK  182  A    between atoms: _432  and  _433
REMARK  183  A    between atoms: _436  and  _438
REMARK  184  A    between atoms: _438  and  _439
REMARK  185  A    between atoms: _438  and  _441
REMARK  186  A    between atoms: _441  and  _442
REMARK  187  A    between atoms: _442  and  _443
REMARK  188  A    between atoms: _443  and  _444
REMARK  189  A    between atoms: _453  and  _455
REMARK  190  A    between atoms: _455  and  _456
REMARK  191  A    between atoms: _455  and  _458
REMARK  192  A    between atoms: _458  and  _459
REMARK  193  A    between atoms: _464  and  _465
REMARK  194  A    between atoms: _467  and  _469
REMARK  195  A    between atoms: _469  and  _470
REMARK  196  A    between atoms: _469  and  _472
REMARK  197  A    between atoms: _472  and  _473
REMARK  198  A    between atoms: _473  and  _474
REMARK  199  A    between atoms: _474  and  _475
REMARK  200  A    between atoms: _484  and  _486
REMARK  201  A    between atoms: _486  and  _487
REMARK  202  A    between atoms: _486  and  _489
REMARK  203  A    between atoms: _489  and  _490
REMARK  204  A    between atoms: _493  and  _495
REMARK  205  A    between atoms: _495  and  _496
REMARK  206  A    between atoms: _498  and  _500
REMARK  207  A    between atoms: _500  and  _501
REMARK  208  A    between atoms: _500  and  _503
REMARK  209  A    between atoms: _503  and  _504
REMARK  210  A    between atoms: _507  and  _509
REMARK  211  A    between atoms: _509  and  _510
REMARK  212  A    between atoms: _509  and  _512
REMARK  213  A    between atoms: _512  and  _513
REMARK  214  A    between atoms: _518  and  _519
REMARK  215  A    between atoms: _521  and  _523
REMARK  216  A    between atoms: _523  and  _524
REMARK  217  A    between atoms: _523  and  _526
REMARK  218  A    between atoms: _526  and  _527
REMARK  219  A    between atoms: _533  and  _535
REMARK  220  A    between atoms: _535  and  _536
REMARK  221  A    between atoms: _535  and  _538
REMARK  222  A    between atoms: _538  and  _539
REMARK  223  A    between atoms: _545  and  _547
REMARK  224  A    between atoms: _547  and  _548
REMARK  225  A    between atoms: _547  and  _550
REMARK  226  A    between atoms: _550  and  _551
REMARK  227  A    between atoms: _554  and  _556
REMARK  228  A    between atoms: _556  and  _557
REMARK  229  A    between atoms: _556  and  _559
REMARK  230  A    between atoms: _559  and  _560
REMARK                            x       y       z     vdW  Elec       q    Type
REMARK                         _______ _______ _______ _____ _____    ______ ____
ROOT
ATOM      1  O   HOH     1      -3.041  17.778 123.909  0.00  0.00    +0.000 OA
ENDROOT
TORSDOF 0
REMARK  Name = ../refined-set-2016/4rhx/4rhx_pocket.pdb
REMARK  230 active torsions:
REMARK  status: ('A' for Active; 'I' for Inactive)
REMARK    1  A    between atoms: _1  and  _3
REMARK    2  A    between atoms: _3  and  _4
REMARK    3  A    between atoms: _3  and  _6
REMARK    4  A    between atoms: _6  and  _7
REMARK    5  A    between atoms: _10  and  _12
REMARK    6  A    between atoms: _12  and  _13
REMARK    7  A    between atoms: _12  and  _15
REMARK    8  A    between atoms: _18  and  _20
REMARK    9  A    between atoms: _20  and  _21
REMARK   10  A    between atoms: _20  and  _23
REMARK   11  A    between atoms: _23  and  _24
REMARK   12  A    between atoms: _27  and  _29
REMARK   13  A    between atoms: _29  and  _30
REMARK   14  A    between atoms: _29  and  _32
REMARK   15  A    between atoms: _32  and  _33
REMARK   16  A    between atoms: _33  and  _34
REMARK   17  A    between atoms: _34  and  _35
REMARK   18  A    between atoms: _35  and  _36
REMARK   19  A    between atoms: _40  and  _42
REMARK   20  A    between atoms: _42  and  _43
REMARK   21  A    between atoms: _45  and  _47
REMARK   22  A    between atoms: _47  and  _48
REMARK   23  A    between atoms: _51  and  _53
REMARK   24  A    between atoms: _53  and  _54
REMARK   25  A    between atoms: _53  and  _56
REMARK   26  A    between atoms: _59  and  _61
REMARK   27  A    between atoms: _61  and  _62
REMARK   28  A    between atoms: _61  and  _64
REMARK   29  A    between atoms: _64  and  _65
REMARK   30  A    between atoms: _65  and  _66
REMARK   31  A    between atoms: _68  and  _70
REMARK   32  A    between atoms: _70  and  _71
REMARK   33  A    between atoms: _74  and  _76
REMARK   34  A    between atoms: _76  and  _77
REMARK   35  A    between atoms: _76  and  _79
REMARK   36  A    between atoms: _82  and  _84
REMARK   37  A    between atoms: _84  and  _85
REMARK   38  A    between atoms: _84  and  _87
REMARK   39  A    between atoms: _87  and  _88
REMARK   40  A    between atoms: _90  and  _92
REMARK   41  A    between atoms: _92  and  _93
REMARK   42  A    between atoms: _92  and  _95
REMARK   43  A    between atoms: _95  and  _96
REMARK   44  A    between atoms: _98  and  _100
REMARK   45  A    between atoms: _100  and  _101
REMARK   46  A    between atoms: _100  and  _103
REMARK   47  A    between atoms: _103  and  _104
REMARK   48  A    between atoms: _109  and  _110
REMARK   49  A    between atoms: _112  and  _114
REMARK   50  A    between atoms: _114  and  _115
REMARK   51  A    between atoms: _117  and  _119
REMARK   52  A    between atoms: _119  and  _120
REMARK   53  A    between atoms: _119  and  _122
REMARK   54  A    between atoms: _125  and  _127
REMARK   55  A    between atoms: _127  and  _128
REMARK   56  A    between atoms: _127  and  _130
REMARK   57  A    between atoms: _130  and  _131
REMARK   58  A    between atoms: _131  and  _132
REMARK   59  A    between atoms: _132  and  _133
REMARK   60  A    between atoms: _142  and  _144
REMARK   61  A    between atoms: _144  and  _145
REMARK   62  A    between atoms: _144  and  _147
REMARK   63  A    between atoms: _147  and  _148
REMARK   64  A    between atoms: _151  and  _153
REMARK   65  A    between atoms: _153  and  _154
REMARK   66  A    between atoms: _153  and  _156
REMARK   67  A    between atoms: _156  and  _157
REMARK   68  A    between atoms: _157  and  _158
REMARK   69  A    between atoms: _161  and  _163
REMARK   70  A    between atoms: _163  and  _164
REMARK   71  A    between atoms: _163  and  _166
REMARK   72  A    between atoms: _166  and  _167
REMARK   73  A    between atoms: _170  and  _172
REMARK   74  A    between atoms: _172  and  _173
REMARK   75  A    between atoms: _172  and  _175
REMARK   76  A    between atoms: _178  and  _180
REMARK   77  A    between atoms: _180  and  _181
REMARK   78  A    between atoms: _180  and  _183
REMARK   79  A    between atoms: _186  and  _188
REMARK   80  A    between atoms: _188  and  _189
REMARK   81  A    between atoms: _188  and  _191
REMARK   82  A    between atoms: _191  and  _192
REMARK   83  A    between atoms: _195  and  _197
REMARK   84  A    between atoms: _197  and  _198
REMARK   85  A    between atoms: _197  and  _200
REMARK   86  A    between atoms: _200  and  _201
REMARK   87  A    between atoms: _203  and  _205
REMARK   88  A    between atoms: _205  and  _206
REMARK   89  A    between atoms: _208  and  _210
REMARK   90  A    between atoms: _210  and  _211
REMARK   91  A    between atoms: _210  and  _213
REMARK   92  A    between atoms: _213  and  _214
REMARK   93  A    between atoms: _217  and  _219
REMARK   94  A    between atoms: _219  and  _220
REMARK   95  A    between atoms: _219  and  _222
REMARK   96  A    between atoms: _222  and  _223
REMARK   97  A    between atoms: _226  and  _228
REMARK   98  A    between atoms: _228  and  _229
REMARK   99  A    between atoms: _228  and  _231
REMARK  100  A    between atoms: _231  and  _232
REMARK  101  A    between atoms: _235  and  _237
REMARK  102  A    between atoms: _237  and  _238
REMARK  103  A    between atoms: _237  and  _240
REMARK  104  A    between atoms: _240  and  _241
REMARK  105  A    between atoms: _243  and  _245
REMARK  106  A    between atoms: _245  and  _246
REMARK  107  A    between atoms: _245  and  _248
REMARK  108  A    between atoms: _248  and  _249
REMARK  109  A    between atoms: _259  and  _261
REMARK  110  A    between atoms: _261  and  _262
REMARK  111  A    between atoms: _261  and  _264
REMARK  112  A    between atoms: _264  and  _265
REMARK  113  A    between atoms: _268  and  _270
REMARK  114  A    between atoms: _270  and  _271
REMARK  115  A    between atoms: _270  and  _273
REMARK  116  A    between atoms: _273  and  _274
REMARK  117  A    between atoms: _277  and  _279
REMARK  118  A    between atoms: _279  and  _280
REMARK  119  A    between atoms: _279  and  _282
REMARK  120  A    between atoms: _282  and  _283
REMARK  121  A    between atoms: _283  and  _284
REMARK  122  A    between atoms: _284  and  _285
REMARK  123  A    between atoms: _285  and  _286
REMARK  124  A    between atoms: _290  and  _292
REMARK  125  A    between atoms: _292  and  _293
REMARK  126  A    between atoms: _292  and  _295
REMARK  127  A    between atoms: _295  and  _296
REMARK  128  A    between atoms: _299  and  _301
REMARK  129  A    between atoms: _301  and  _302
REMARK  130  A    between atoms: _305  and  _307
REMARK  131  A    between atoms: _307  and  _308
REMARK  132  A    between atoms: _311  and  _313
REMARK  133  A    between atoms: _313  and  _314
REMARK  134  A    between atoms: _313  and  _316
REMARK  135  A    between atoms: _316  and  _317
REMARK  136  A    between atoms: _321  and  _322
REMARK  137  A    between atoms: _327  and  _329
REMARK  138  A    between atoms: _329  and  _330
REMARK  139  A    between atoms: _329  and  _332
REMARK  140  A    between atoms: _332  and  _333
REMARK  141  A    between atoms: _338  and  _340
REMARK  142  A    between atoms: _340  and  _341
REMARK  143  A    between atoms: _340  and  _343
REMARK  144  A    between atoms: _343  and  _344
REMARK  145  A    between atoms: _347  and  _349
REMARK  146  A    between atoms: _349  and  _350
REMARK  147  A    between atoms: _349  and  _352
REMARK  148  A    between atoms: _352  and  _353
REMARK  149  A    between atoms: _359  and  _361
REMARK  150  A    between atoms: _361  and  _362
REMARK  151  A    between atoms: _361  and  _364
REMARK  152  A    between atoms: _367  and  _369
REMARK  153  A    between atoms: _369  and  _370
REMARK  154  A    between atoms: _369  and  _372
REMARK  155  A    between atoms: _375  and  _377
REMARK  156  A    between atoms: _377  and  _378
REMARK  157  A    between atoms: _380  and  _382
REMARK  158  A    between atoms: _382  and  _383
REMARK  159  A    between atoms: _385  and  _387
REMARK  160  A    between atoms: _387  and  _388
REMARK  161  A    between atoms: _387  and  _390
REMARK  162  A    between atoms: _390  and  _391
REMARK  163  A    between atoms: _394  and  _396
REMARK  164  A    between atoms: _396  and  _397
REMARK  165  A    between atoms: _396  and  _399
REMARK  166  A    between atoms: _399  and  _400
REMARK  167  A    between atoms: _400  and  _402
REMARK  168  A    between atoms: _402  and  MG_565
REMARK  169  A    between atoms: _403  and  _405
REMARK  170  A    between atoms: _405  and  _406
REMARK  171  A    between atoms: _405  and  _408
REMARK  172  A    between atoms: _408  and  _409
REMARK  173  A    between atoms: _414  and  _415
REMARK  174  A    between atoms: _417  and  _419
REMARK  175  A    between atoms: _419  and  _420
REMARK  176  A    between atoms: _419  and  _422
REMARK  177  A    between atoms: _422  and  _423
REMARK  178  A    between atoms: _426  and  _428
REMARK  179  A    between atoms: _428  and  _429
REMARK  180  A    between atoms: _428  and  _431
REMARK  181  A    between atoms: _431  and  _432
REMARK  182  A    between atoms: _432  and  _433
REMARK  183  A    between atoms: _436  and  _438
REMARK  184  A    between atoms: _438  and  _439
REMARK  185  A    between atoms: _438  and  _441
REMARK  186  A    between atoms: _441  and  _442
REMARK  187  A    between atoms: _442  and  _443
REMARK  188  A    between atoms: _443  and  _444
REMARK  189  A    between atoms: _453  and  _455
REMARK  190  A    between atoms: _455  and  _456
REMARK  191  A    between atoms: _455  and  _458
REMARK  192  A    between atoms: _458  and  _459
REMARK  193  A    between atoms: _464  and  _465
REMARK  194  A    between atoms: _467  and  _469
REMARK  195  A    between atoms: _469  and  _470
REMARK  196  A    between atoms: _469  and  _472
REMARK  197  A    between atoms: _472  and  _473
REMARK  198  A    between atoms: _473  and  _474
REMARK  199  A    between atoms: _474  and  _475
REMARK  200  A    between atoms: _484  and  _486
REMARK  201  A    between atoms: _486  and  _487
REMARK  202  A    between atoms: _486  and  _489
REMARK  203  A    between atoms: _489  and  _490
REMARK  204  A    between atoms: _493  and  _495
REMARK  205  A    between atoms: _495  and  _496
REMARK  206  A    between atoms: _498  and  _500
REMARK  207  A    between atoms: _500  and  _501
REMARK  208  A    between atoms: _500  and  _503
REMARK  209  A    between atoms: _503  and  _504
REMARK  210  A    between atoms: _507  and  _509
REMARK  211  A    between atoms: _509  and  _510
REMARK  212  A    between atoms: _509  and  _512
REMARK  213  A    between atoms: _512  and  _513
REMARK  214  A    between atoms: _518  and  _519
REMARK  215  A    between atoms: _521  and  _523
REMARK  216  A    between atoms: _523  and  _524
REMARK  217  A    between atoms: _523  and  _526
REMARK  218  A    between atoms: _526  and  _527
REMARK  219  A    between atoms: _533  and  _535
REMARK  220  A    between atoms: _535  and  _536
REMARK  221  A    between atoms: _535  and  _538
REMARK  222  A    between atoms: _538  and  _539
REMARK  223  A    between atoms: _545  and  _547
REMARK  224  A    between atoms: _547  and  _548
REMARK  225  A    between atoms: _547  and  _550
REMARK  226  A    between atoms: _550  and  _551
REMARK  227  A    between atoms: _554  and  _556
REMARK  228  A    between atoms: _556  and  _557
REMARK  229  A    between atoms: _556  and  _559
REMARK  230  A    between atoms: _559  and  _560
REMARK                            x       y       z     vdW  Elec       q    Type
REMARK                         _______ _______ _______ _____ _____    ______ ____
ROOT
ATOM      1  O   HOH     1      -6.298  24.832 121.073  0.00  0.00    +0.000 OA
ENDROOT
TORSDOF 0
REMARK  Name = ../refined-set-2016/4rhx/4rhx_pocket.pdb
REMARK  230 active torsions:
REMARK  status: ('A' for Active; 'I' for Inactive)
REMARK    1  A    between atoms: _1  and  _3
REMARK    2  A    between atoms: _3  and  _4
REMARK    3  A    between atoms: _3  and  _6
REMARK    4  A    between atoms: _6  and  _7
REMARK    5  A    between atoms: _10  and  _12
REMARK    6  A    between atoms: _12  and  _13
REMARK    7  A    between atoms: _12  and  _15
REMARK    8  A    between atoms: _18  and  _20
REMARK    9  A    between atoms: _20  and  _21
REMARK   10  A    between atoms: _20  and  _23
REMARK   11  A    between atoms: _23  and  _24
REMARK   12  A    between atoms: _27  and  _29
REMARK   13  A    between atoms: _29  and  _30
REMARK   14  A    between atoms: _29  and  _32
REMARK   15  A    between atoms: _32  and  _33
REMARK   16  A    between atoms: _33  and  _34
REMARK   17  A    between atoms: _34  and  _35
REMARK   18  A    between atoms: _35  and  _36
REMARK   19  A    between atoms: _40  and  _42
REMARK   20  A    between atoms: _42  and  _43
REMARK   21  A    between atoms: _45  and  _47
REMARK   22  A    between atoms: _47  and  _48
REMARK   23  A    between atoms: _51  and  _53
REMARK   24  A    between atoms: _53  and  _54
REMARK   25  A    between atoms: _53  and  _56
REMARK   26  A    between atoms: _59  and  _61
REMARK   27  A    between atoms: _61  and  _62
REMARK   28  A    between atoms: _61  and  _64
REMARK   29  A    between atoms: _64  and  _65
REMARK   30  A    between atoms: _65  and  _66
REMARK   31  A    between atoms: _68  and  _70
REMARK   32  A    between atoms: _70  and  _71
REMARK   33  A    between atoms: _74  and  _76
REMARK   34  A    between atoms: _76  and  _77
REMARK   35  A    between atoms: _76  and  _79
REMARK   36  A    between atoms: _82  and  _84
REMARK   37  A    between atoms: _84  and  _85
REMARK   38  A    between atoms: _84  and  _87
REMARK   39  A    between atoms: _87  and  _88
REMARK   40  A    between atoms: _90  and  _92
REMARK   41  A    between atoms: _92  and  _93
REMARK   42  A    between atoms: _92  and  _95
REMARK   43  A    between atoms: _95  and  _96
REMARK   44  A    between atoms: _98  and  _100
REMARK   45  A    between atoms: _100  and  _101
REMARK   46  A    between atoms: _100  and  _103
REMARK   47  A    between atoms: _103  and  _104
REMARK   48  A    between atoms: _109  and  _110
REMARK   49  A    between atoms: _112  and  _114
REMARK   50  A    between atoms: _114  and  _115
REMARK   51  A    between atoms: _117  and  _119
REMARK   52  A    between atoms: _119  and  _120
REMARK   53  A    between atoms: _119  and  _122
REMARK   54  A    between atoms: _125  and  _127
REMARK   55  A    between atoms: _127  and  _128
REMARK   56  A    between atoms: _127  and  _130
REMARK   57  A    between atoms: _130  and  _131
REMARK   58  A    between atoms: _131  and  _132
REMARK   59  A    between atoms: _132  and  _133
REMARK   60  A    between atoms: _142  and  _144
REMARK   61  A    between atoms: _144  and  _145
REMARK   62  A    between atoms: _144  and  _147
REMARK   63  A    between atoms: _147  and  _148
REMARK   64  A    between atoms: _151  and  _153
REMARK   65  A    between atoms: _153  and  _154
REMARK   66  A    between atoms: _153  and  _156
REMARK   67  A    between atoms: _156  and  _157
REMARK   68  A    between atoms: _157  and  _158
REMARK   69  A    between atoms: _161  and  _163
REMARK   70  A    between atoms: _163  and  _164
REMARK   71  A    between atoms: _163  and  _166
REMARK   72  A    between atoms: _166  and  _167
REMARK   73  A    between atoms: _170  and  _172
REMARK   74  A    between atoms: _172  and  _173
REMARK   75  A    between atoms: _172  and  _175
REMARK   76  A    between atoms: _178  and  _180
REMARK   77  A    between atoms: _180  and  _181
REMARK   78  A    between atoms: _180  and  _183
REMARK   79  A    between atoms: _186  and  _188
REMARK   80  A    between atoms: _188  and  _189
REMARK   81  A    between atoms: _188  and  _191
REMARK   82  A    between atoms: _191  and  _192
REMARK   83  A    between atoms: _195  and  _197
REMARK   84  A    between atoms: _197  and  _198
REMARK   85  A    between atoms: _197  and  _200
REMARK   86  A    between atoms: _200  and  _201
REMARK   87  A    between atoms: _203  and  _205
REMARK   88  A    between atoms: _205  and  _206
REMARK   89  A    between atoms: _208  and  _210
REMARK   90  A    between atoms: _210  and  _211
REMARK   91  A    between atoms: _210  and  _213
REMARK   92  A    between atoms: _213  and  _214
REMARK   93  A    between atoms: _217  and  _219
REMARK   94  A    between atoms: _219  and  _220
REMARK   95  A    between atoms: _219  and  _222
REMARK   96  A    between atoms: _222  and  _223
REMARK   97  A    between atoms: _226  and  _228
REMARK   98  A    between atoms: _228  and  _229
REMARK   99  A    between atoms: _228  and  _231
REMARK  100  A    between atoms: _231  and  _232
REMARK  101  A    between atoms: _235  and  _237
REMARK  102  A    between atoms: _237  and  _238
REMARK  103  A    between atoms: _237  and  _240
REMARK  104  A    between atoms: _240  and  _241
REMARK  105  A    between atoms: _243  and  _245
REMARK  106  A    between atoms: _245  and  _246
REMARK  107  A    between atoms: _245  and  _248
REMARK  108  A    between atoms: _248  and  _249
REMARK  109  A    between atoms: _259  and  _261
REMARK  110  A    between atoms: _261  and  _262
REMARK  111  A    between atoms: _261  and  _264
REMARK  112  A    between atoms: _264  and  _265
REMARK  113  A    between atoms: _268  and  _270
REMARK  114  A    between atoms: _270  and  _271
REMARK  115  A    between atoms: _270  and  _273
REMARK  116  A    between atoms: _273  and  _274
REMARK  117  A    between atoms: _277  and  _279
REMARK  118  A    between atoms: _279  and  _280
REMARK  119  A    between atoms: _279  and  _282
REMARK  120  A    between atoms: _282  and  _283
REMARK  121  A    between atoms: _283  and  _284
REMARK  122  A    between atoms: _284  and  _285
REMARK  123  A    between atoms: _285  and  _286
REMARK  124  A    between atoms: _290  and  _292
REMARK  125  A    between atoms: _292  and  _293
REMARK  126  A    between atoms: _292  and  _295
REMARK  127  A    between atoms: _295  and  _296
REMARK  128  A    between atoms: _299  and  _301
REMARK  129  A    between atoms: _301  and  _302
REMARK  130  A    between atoms: _305  and  _307
REMARK  131  A    between atoms: _307  and  _308
REMARK  132  A    between atoms: _311  and  _313
REMARK  133  A    between atoms: _313  and  _314
REMARK  134  A    between atoms: _313  and  _316
REMARK  135  A    between atoms: _316  and  _317
REMARK  136  A    between atoms: _321  and  _322
REMARK  137  A    between atoms: _327  and  _329
REMARK  138  A    between atoms: _329  and  _330
REMARK  139  A    between atoms: _329  and  _332
REMARK  140  A    between atoms: _332  and  _333
REMARK  141  A    between atoms: _338  and  _340
REMARK  142  A    between atoms: _340  and  _341
REMARK  143  A    between atoms: _340  and  _343
REMARK  144  A    between atoms: _343  and  _344
REMARK  145  A    between atoms: _347  and  _349
REMARK  146  A    between atoms: _349  and  _350
REMARK  147  A    between atoms: _349  and  _352
REMARK  148  A    between atoms: _352  and  _353
REMARK  149  A    between atoms: _359  and  _361
REMARK  150  A    between atoms: _361  and  _362
REMARK  151  A    between atoms: _361  and  _364
REMARK  152  A    between atoms: _367  and  _369
REMARK  153  A    between atoms: _369  and  _370
REMARK  154  A    between atoms: _369  and  _372
REMARK  155  A    between atoms: _375  and  _377
REMARK  156  A    between atoms: _377  and  _378
REMARK  157  A    between atoms: _380  and  _382
REMARK  158  A    between atoms: _382  and  _383
REMARK  159  A    between atoms: _385  and  _387
REMARK  160  A    between atoms: _387  and  _388
REMARK  161  A    between atoms: _387  and  _390
REMARK  162  A    between atoms: _390  and  _391
REMARK  163  A    between atoms: _394  and  _396
REMARK  164  A    between atoms: _396  and  _397
REMARK  165  A    between atoms: _396  and  _399
REMARK  166  A    between atoms: _399  and  _400
REMARK  167  A    between atoms: _400  and  _402
REMARK  168  A    between atoms: _402  and  MG_565
REMARK  169  A    between atoms: _403  and  _405
REMARK  170  A    between atoms: _405  and  _406
REMARK  171  A    between atoms: _405  and  _408
REMARK  172  A    between atoms: _408  and  _409
REMARK  173  A    between atoms: _414  and  _415
REMARK  174  A    between atoms: _417  and  _419
REMARK  175  A    between atoms: _419  and  _420
REMARK  176  A    between atoms: _419  and  _422
REMARK  177  A    between atoms: _422  and  _423
REMARK  178  A    between atoms: _426  and  _428
REMARK  179  A    between atoms: _428  and  _429
REMARK  180  A    between atoms: _428  and  _431
REMARK  181  A    between atoms: _431  and  _432
REMARK  182  A    between atoms: _432  and  _433
REMARK  183  A    between atoms: _436  and  _438
REMARK  184  A    between atoms: _438  and  _439
REMARK  185  A    between atoms: _438  and  _441
REMARK  186  A    between atoms: _441  and  _442
REMARK  187  A    between atoms: _442  and  _443
REMARK  188  A    between atoms: _443  and  _444
REMARK  189  A    between atoms: _453  and  _455
REMARK  190  A    between atoms: _455  and  _456
REMARK  191  A    between atoms: _455  and  _458
REMARK  192  A    between atoms: _458  and  _459
REMARK  193  A    between atoms: _464  and  _465
REMARK  194  A    between atoms: _467  and  _469
REMARK  195  A    between atoms: _469  and  _470
REMARK  196  A    between atoms: _469  and  _472
REMARK  197  A    between atoms: _472  and  _473
REMARK  198  A    between atoms: _473  and  _474
REMARK  199  A    between atoms: _474  and  _475
REMARK  200  A    between atoms: _484  and  _486
REMARK  201  A    between atoms: _486  and  _487
REMARK  202  A    between atoms: _486  and  _489
REMARK  203  A    between atoms: _489  and  _490
REMARK  204  A    between atoms: _493  and  _495
REMARK  205  A    between atoms: _495  and  _496
REMARK  206  A    between atoms: _498  and  _500
REMARK  207  A    between atoms: _500  and  _501
REMARK  208  A    between atoms: _500  and  _503
REMARK  209  A    between atoms: _503  and  _504
REMARK  210  A    between atoms: _507  and  _509
REMARK  211  A    between atoms: _509  and  _510
REMARK  212  A    between atoms: _509  and  _512
REMARK  213  A    between atoms: _512  and  _513
REMARK  214  A    between atoms: _518  and  _519
REMARK  215  A    between atoms: _521  and  _523
REMARK  216  A    between atoms: _523  and  _524
REMARK  217  A    between atoms: _523  and  _526
REMARK  218  A    between atoms: _526  and  _527
REMARK  219  A    between atoms: _533  and  _535
REMARK  220  A    between atoms: _535  and  _536
REMARK  221  A    between atoms: _535  and  _538
REMARK  222  A    between atoms: _538  and  _539
REMARK  223  A    between atoms: _545  and  _547
REMARK  224  A    between atoms: _547  and  _548
REMARK  225  A    between atoms: _547  and  _550
REMARK  226  A    between atoms: _550  and  _551
REMARK  227  A    between atoms: _554  and  _556
REMARK  228  A    between atoms: _556  and  _557
REMARK  229  A    between atoms: _556  and  _559
REMARK  230  A    between atoms: _559  and  _560
REMARK                            x       y       z     vdW  Elec       q    Type
REMARK                         _______ _______ _______ _____ _____    ______ ____
ROOT
ATOM      1  O   HOH     1      -7.082  23.365 117.094  0.00  0.00    +0.000 OA
ENDROOT
TORSDOF 0
REMARK  Name = ../refined-set-2016/4rhx/4rhx_pocket.pdb
REMARK  230 active torsions:
REMARK  status: ('A' for Active; 'I' for Inactive)
REMARK    1  A    between atoms: _1  and  _3
REMARK    2  A    between atoms: _3  and  _4
REMARK    3  A    between atoms: _3  and  _6
REMARK    4  A    between atoms: _6  and  _7
REMARK    5  A    between atoms: _10  and  _12
REMARK    6  A    between atoms: _12  and  _13
REMARK    7  A    between atoms: _12  and  _15
REMARK    8  A    between atoms: _18  and  _20
REMARK    9  A    between atoms: _20  and  _21
REMARK   10  A    between atoms: _20  and  _23
REMARK   11  A    between atoms: _23  and  _24
REMARK   12  A    between atoms: _27  and  _29
REMARK   13  A    between atoms: _29  and  _30
REMARK   14  A    between atoms: _29  and  _32
REMARK   15  A    between atoms: _32  and  _33
REMARK   16  A    between atoms: _33  and  _34
REMARK   17  A    between atoms: _34  and  _35
REMARK   18  A    between atoms: _35  and  _36
REMARK   19  A    between atoms: _40  and  _42
REMARK   20  A    between atoms: _42  and  _43
REMARK   21  A    between atoms: _45  and  _47
REMARK   22  A    between atoms: _47  and  _48
REMARK   23  A    between atoms: _51  and  _53
REMARK   24  A    between atoms: _53  and  _54
REMARK   25  A    between atoms: _53  and  _56
REMARK   26  A    between atoms: _59  and  _61
REMARK   27  A    between atoms: _61  and  _62
REMARK   28  A    between atoms: _61  and  _64
REMARK   29  A    between atoms: _64  and  _65
REMARK   30  A    between atoms: _65  and  _66
REMARK   31  A    between atoms: _68  and  _70
REMARK   32  A    between atoms: _70  and  _71
REMARK   33  A    between atoms: _74  and  _76
REMARK   34  A    between atoms: _76  and  _77
REMARK   35  A    between atoms: _76  and  _79
REMARK   36  A    between atoms: _82  and  _84
REMARK   37  A    between atoms: _84  and  _85
REMARK   38  A    between atoms: _84  and  _87
REMARK   39  A    between atoms: _87  and  _88
REMARK   40  A    between atoms: _90  and  _92
REMARK   41  A    between atoms: _92  and  _93
REMARK   42  A    between atoms: _92  and  _95
REMARK   43  A    between atoms: _95  and  _96
REMARK   44  A    between atoms: _98  and  _100
REMARK   45  A    between atoms: _100  and  _101
REMARK   46  A    between atoms: _100  and  _103
REMARK   47  A    between atoms: _103  and  _104
REMARK   48  A    between atoms: _109  and  _110
REMARK   49  A    between atoms: _112  and  _114
REMARK   50  A    between atoms: _114  and  _115
REMARK   51  A    between atoms: _117  and  _119
REMARK   52  A    between atoms: _119  and  _120
REMARK   53  A    between atoms: _119  and  _122
REMARK   54  A    between atoms: _125  and  _127
REMARK   55  A    between atoms: _127  and  _128
REMARK   56  A    between atoms: _127  and  _130
REMARK   57  A    between atoms: _130  and  _131
REMARK   58  A    between atoms: _131  and  _132
REMARK   59  A    between atoms: _132  and  _133
REMARK   60  A    between atoms: _142  and  _144
REMARK   61  A    between atoms: _144  and  _145
REMARK   62  A    between atoms: _144  and  _147
REMARK   63  A    between atoms: _147  and  _148
REMARK   64  A    between atoms: _151  and  _153
REMARK   65  A    between atoms: _153  and  _154
REMARK   66  A    between atoms: _153  and  _156
REMARK   67  A    between atoms: _156  and  _157
REMARK   68  A    between atoms: _157  and  _158
REMARK   69  A    between atoms: _161  and  _163
REMARK   70  A    between atoms: _163  and  _164
REMARK   71  A    between atoms: _163  and  _166
REMARK   72  A    between atoms: _166  and  _167
REMARK   73  A    between atoms: _170  and  _172
REMARK   74  A    between atoms: _172  and  _173
REMARK   75  A    between atoms: _172  and  _175
REMARK   76  A    between atoms: _178  and  _180
REMARK   77  A    between atoms: _180  and  _181
REMARK   78  A    between atoms: _180  and  _183
REMARK   79  A    between atoms: _186  and  _188
REMARK   80  A    between atoms: _188  and  _189
REMARK   81  A    between atoms: _188  and  _191
REMARK   82  A    between atoms: _191  and  _192
REMARK   83  A    between atoms: _195  and  _197
REMARK   84  A    between atoms: _197  and  _198
REMARK   85  A    between atoms: _197  and  _200
REMARK   86  A    between atoms: _200  and  _201
REMARK   87  A    between atoms: _203  and  _205
REMARK   88  A    between atoms: _205  and  _206
REMARK   89  A    between atoms: _208  and  _210
REMARK   90  A    between atoms: _210  and  _211
REMARK   91  A    between atoms: _210  and  _213
REMARK   92  A    between atoms: _213  and  _214
REMARK   93  A    between atoms: _217  and  _219
REMARK   94  A    between atoms: _219  and  _220
REMARK   95  A    between atoms: _219  and  _222
REMARK   96  A    between atoms: _222  and  _223
REMARK   97  A    between atoms: _226  and  _228
REMARK   98  A    between atoms: _228  and  _229
REMARK   99  A    between atoms: _228  and  _231
REMARK  100  A    between atoms: _231  and  _232
REMARK  101  A    between atoms: _235  and  _237
REMARK  102  A    between atoms: _237  and  _238
REMARK  103  A    between atoms: _237  and  _240
REMARK  104  A    between atoms: _240  and  _241
REMARK  105  A    between atoms: _243  and  _245
REMARK  106  A    between atoms: _245  and  _246
REMARK  107  A    between atoms: _245  and  _248
REMARK  108  A    between atoms: _248  and  _249
REMARK  109  A    between atoms: _259  and  _261
REMARK  110  A    between atoms: _261  and  _262
REMARK  111  A    between atoms: _261  and  _264
REMARK  112  A    between atoms: _264  and  _265
REMARK  113  A    between atoms: _268  and  _270
REMARK  114  A    between atoms: _270  and  _271
REMARK  115  A    between atoms: _270  and  _273
REMARK  116  A    between atoms: _273  and  _274
REMARK  117  A    between atoms: _277  and  _279
REMARK  118  A    between atoms: _279  and  _280
REMARK  119  A    between atoms: _279  and  _282
REMARK  120  A    between atoms: _282  and  _283
REMARK  121  A    between atoms: _283  and  _284
REMARK  122  A    between atoms: _284  and  _285
REMARK  123  A    between atoms: _285  and  _286
REMARK  124  A    between atoms: _290  and  _292
REMARK  125  A    between atoms: _292  and  _293
REMARK  126  A    between atoms: _292  and  _295
REMARK  127  A    between atoms: _295  and  _296
REMARK  128  A    between atoms: _299  and  _301
REMARK  129  A    between atoms: _301  and  _302
REMARK  130  A    between atoms: _305  and  _307
REMARK  131  A    between atoms: _307  and  _308
REMARK  132  A    between atoms: _311  and  _313
REMARK  133  A    between atoms: _313  and  _314
REMARK  134  A    between atoms: _313  and  _316
REMARK  135  A    between atoms: _316  and  _317
REMARK  136  A    between atoms: _321  and  _322
REMARK  137  A    between atoms: _327  and  _329
REMARK  138  A    between atoms: _329  and  _330
REMARK  139  A    between atoms: _329  and  _332
REMARK  140  A    between atoms: _332  and  _333
REMARK  141  A    between atoms: _338  and  _340
REMARK  142  A    between atoms: _340  and  _341
REMARK  143  A    between atoms: _340  and  _343
REMARK  144  A    between atoms: _343  and  _344
REMARK  145  A    between atoms: _347  and  _349
REMARK  146  A    between atoms: _349  and  _350
REMARK  147  A    between atoms: _349  and  _352
REMARK  148  A    between atoms: _352  and  _353
REMARK  149  A    between atoms: _359  and  _361
REMARK  150  A    between atoms: _361  and  _362
REMARK  151  A    between atoms: _361  and  _364
REMARK  152  A    between atoms: _367  and  _369
REMARK  153  A    between atoms: _369  and  _370
REMARK  154  A    between atoms: _369  and  _372
REMARK  155  A    between atoms: _375  and  _377
REMARK  156  A    between atoms: _377  and  _378
REMARK  157  A    between atoms: _380  and  _382
REMARK  158  A    between atoms: _382  and  _383
REMARK  159  A    between atoms: _385  and  _387
REMARK  160  A    between atoms: _387  and  _388
REMARK  161  A    between atoms: _387  and  _390
REMARK  162  A    between atoms: _390  and  _391
REMARK  163  A    between atoms: _394  and  _396
REMARK  164  A    between atoms: _396  and  _397
REMARK  165  A    between atoms: _396  and  _399
REMARK  166  A    between atoms: _399  and  _400
REMARK  167  A    between atoms: _400  and  _402
REMARK  168  A    between atoms: _402  and  MG_565
REMARK  169  A    between atoms: _403  and  _405
REMARK  170  A    between atoms: _405  and  _406
REMARK  171  A    between atoms: _405  and  _408
REMARK  172  A    between atoms: _408  and  _409
REMARK  173  A    between atoms: _414  and  _415
REMARK  174  A    between atoms: _417  and  _419
REMARK  175  A    between atoms: _419  and  _420
REMARK  176  A    between atoms: _419  and  _422
REMARK  177  A    between atoms: _422  and  _423
REMARK  178  A    between atoms: _426  and  _428
REMARK  179  A    between atoms: _428  and  _429
REMARK  180  A    between atoms: _428  and  _431
REMARK  181  A    between atoms: _431  and  _432
REMARK  182  A    between atoms: _432  and  _433
REMARK  183  A    between atoms: _436  and  _438
REMARK  184  A    between atoms: _438  and  _439
REMARK  185  A    between atoms: _438  and  _441
REMARK  186  A    between atoms: _441  and  _442
REMARK  187  A    between atoms: _442  and  _443
REMARK  188  A    between atoms: _443  and  _444
REMARK  189  A    between atoms: _453  and  _455
REMARK  190  A    between atoms: _455  and  _456
REMARK  191  A    between atoms: _455  and  _458
REMARK  192  A    between atoms: _458  and  _459
REMARK  193  A    between atoms: _464  and  _465
REMARK  194  A    between atoms: _467  and  _469
REMARK  195  A    between atoms: _469  and  _470
REMARK  196  A    between atoms: _469  and  _472
REMARK  197  A    between atoms: _472  and  _473
REMARK  198  A    between atoms: _473  and  _474
REMARK  199  A    between atoms: _474  and  _475
REMARK  200  A    between atoms: _484  and  _486
REMARK  201  A    between atoms: _486  and  _487
REMARK  202  A    between atoms: _486  and  _489
REMARK  203  A    between atoms: _489  and  _490
REMARK  204  A    between atoms: _493  and  _495
REMARK  205  A    between atoms: _495  and  _496
REMARK  206  A    between atoms: _498  and  _500
REMARK  207  A    between atoms: _500  and  _501
REMARK  208  A    between atoms: _500  and  _503
REMARK  209  A    between atoms: _503  and  _504
REMARK  210  A    between atoms: _507  and  _509
REMARK  211  A    between atoms: _509  and  _510
REMARK  212  A    between atoms: _509  and  _512
REMARK  213  A    between atoms: _512  and  _513
REMARK  214  A    between atoms: _518  and  _519
REMARK  215  A    between atoms: _521  and  _523
REMARK  216  A    between atoms: _523  and  _524
REMARK  217  A    between atoms: _523  and  _526
REMARK  218  A    between atoms: _526  and  _527
REMARK  219  A    between atoms: _533  and  _535
REMARK  220  A    between atoms: _535  and  _536
REMARK  221  A    between atoms: _535  and  _538
REMARK  222  A    between atoms: _538  and  _539
REMARK  223  A    between atoms: _545  and  _547
REMARK  224  A    between atoms: _547  and  _548
REMARK  225  A    between atoms: _547  and  _550
REMARK  226  A    between atoms: _550  and  _551
REMARK  227  A    between atoms: _554  and  _556
REMARK  228  A    between atoms: _556  and  _557
REMARK  229  A    between atoms: _556  and  _559
REMARK  230  A    between atoms: _559  and  _560
REMARK                            x       y       z     vdW  Elec       q    Type
REMARK                         _______ _______ _______ _____ _____    ______ ____
ROOT
ATOM      1  O   HOH     1      -7.475  18.136 134.617  0.00  0.00    +0.000 OA
ENDROOT
TORSDOF 0
REMARK  Name = ../refined-set-2016/4rhx/4rhx_pocket.pdb
REMARK  230 active torsions:
REMARK  status: ('A' for Active; 'I' for Inactive)
REMARK    1  A    between atoms: _1  and  _3
REMARK    2  A    between atoms: _3  and  _4
REMARK    3  A    between atoms: _3  and  _6
REMARK    4  A    between atoms: _6  and  _7
REMARK    5  A    between atoms: _10  and  _12
REMARK    6  A    between atoms: _12  and  _13
REMARK    7  A    between atoms: _12  and  _15
REMARK    8  A    between atoms: _18  and  _20
REMARK    9  A    between atoms: _20  and  _21
REMARK   10  A    between atoms: _20  and  _23
REMARK   11  A    between atoms: _23  and  _24
REMARK   12  A    between atoms: _27  and  _29
REMARK   13  A    between atoms: _29  and  _30
REMARK   14  A    between atoms: _29  and  _32
REMARK   15  A    between atoms: _32  and  _33
REMARK   16  A    between atoms: _33  and  _34
REMARK   17  A    between atoms: _34  and  _35
REMARK   18  A    between atoms: _35  and  _36
REMARK   19  A    between atoms: _40  and  _42
REMARK   20  A    between atoms: _42  and  _43
REMARK   21  A    between atoms: _45  and  _47
REMARK   22  A    between atoms: _47  and  _48
REMARK   23  A    between atoms: _51  and  _53
REMARK   24  A    between atoms: _53  and  _54
REMARK   25  A    between atoms: _53  and  _56
REMARK   26  A    between atoms: _59  and  _61
REMARK   27  A    between atoms: _61  and  _62
REMARK   28  A    between atoms: _61  and  _64
REMARK   29  A    between atoms: _64  and  _65
REMARK   30  A    between atoms: _65  and  _66
REMARK   31  A    between atoms: _68  and  _70
REMARK   32  A    between atoms: _70  and  _71
REMARK   33  A    between atoms: _74  and  _76
REMARK   34  A    between atoms: _76  and  _77
REMARK   35  A    between atoms: _76  and  _79
REMARK   36  A    between atoms: _82  and  _84
REMARK   37  A    between atoms: _84  and  _85
REMARK   38  A    between atoms: _84  and  _87
REMARK   39  A    between atoms: _87  and  _88
REMARK   40  A    between atoms: _90  and  _92
REMARK   41  A    between atoms: _92  and  _93
REMARK   42  A    between atoms: _92  and  _95
REMARK   43  A    between atoms: _95  and  _96
REMARK   44  A    between atoms: _98  and  _100
REMARK   45  A    between atoms: _100  and  _101
REMARK   46  A    between atoms: _100  and  _103
REMARK   47  A    between atoms: _103  and  _104
REMARK   48  A    between atoms: _109  and  _110
REMARK   49  A    between atoms: _112  and  _114
REMARK   50  A    between atoms: _114  and  _115
REMARK   51  A    between atoms: _117  and  _119
REMARK   52  A    between atoms: _119  and  _120
REMARK   53  A    between atoms: _119  and  _122
REMARK   54  A    between atoms: _125  and  _127
REMARK   55  A    between atoms: _127  and  _128
REMARK   56  A    between atoms: _127  and  _130
REMARK   57  A    between atoms: _130  and  _131
REMARK   58  A    between atoms: _131  and  _132
REMARK   59  A    between atoms: _132  and  _133
REMARK   60  A    between atoms: _142  and  _144
REMARK   61  A    between atoms: _144  and  _145
REMARK   62  A    between atoms: _144  and  _147
REMARK   63  A    between atoms: _147  and  _148
REMARK   64  A    between atoms: _151  and  _153
REMARK   65  A    between atoms: _153  and  _154
REMARK   66  A    between atoms: _153  and  _156
REMARK   67  A    between atoms: _156  and  _157
REMARK   68  A    between atoms: _157  and  _158
REMARK   69  A    between atoms: _161  and  _163
REMARK   70  A    between atoms: _163  and  _164
REMARK   71  A    between atoms: _163  and  _166
REMARK   72  A    between atoms: _166  and  _167
REMARK   73  A    between atoms: _170  and  _172
REMARK   74  A    between atoms: _172  and  _173
REMARK   75  A    between atoms: _172  and  _175
REMARK   76  A    between atoms: _178  and  _180
REMARK   77  A    between atoms: _180  and  _181
REMARK   78  A    between atoms: _180  and  _183
REMARK   79  A    between atoms: _186  and  _188
REMARK   80  A    between atoms: _188  and  _189
REMARK   81  A    between atoms: _188  and  _191
REMARK   82  A    between atoms: _191  and  _192
REMARK   83  A    between atoms: _195  and  _197
REMARK   84  A    between atoms: _197  and  _198
REMARK   85  A    between atoms: _197  and  _200
REMARK   86  A    between atoms: _200  and  _201
REMARK   87  A    between atoms: _203  and  _205
REMARK   88  A    between atoms: _205  and  _206
REMARK   89  A    between atoms: _208  and  _210
REMARK   90  A    between atoms: _210  and  _211
REMARK   91  A    between atoms: _210  and  _213
REMARK   92  A    between atoms: _213  and  _214
REMARK   93  A    between atoms: _217  and  _219
REMARK   94  A    between atoms: _219  and  _220
REMARK   95  A    between atoms: _219  and  _222
REMARK   96  A    between atoms: _222  and  _223
REMARK   97  A    between atoms: _226  and  _228
REMARK   98  A    between atoms: _228  and  _229
REMARK   99  A    between atoms: _228  and  _231
REMARK  100  A    between atoms: _231  and  _232
REMARK  101  A    between atoms: _235  and  _237
REMARK  102  A    between atoms: _237  and  _238
REMARK  103  A    between atoms: _237  and  _240
REMARK  104  A    between atoms: _240  and  _241
REMARK  105  A    between atoms: _243  and  _245
REMARK  106  A    between atoms: _245  and  _246
REMARK  107  A    between atoms: _245  and  _248
REMARK  108  A    between atoms: _248  and  _249
REMARK  109  A    between atoms: _259  and  _261
REMARK  110  A    between atoms: _261  and  _262
REMARK  111  A    between atoms: _261  and  _264
REMARK  112  A    between atoms: _264  and  _265
REMARK  113  A    between atoms: _268  and  _270
REMARK  114  A    between atoms: _270  and  _271
REMARK  115  A    between atoms: _270  and  _273
REMARK  116  A    between atoms: _273  and  _274
REMARK  117  A    between atoms: _277  and  _279
REMARK  118  A    between atoms: _279  and  _280
REMARK  119  A    between atoms: _279  and  _282
REMARK  120  A    between atoms: _282  and  _283
REMARK  121  A    between atoms: _283  and  _284
REMARK  122  A    between atoms: _284  and  _285
REMARK  123  A    between atoms: _285  and  _286
REMARK  124  A    between atoms: _290  and  _292
REMARK  125  A    between atoms: _292  and  _293
REMARK  126  A    between atoms: _292  and  _295
REMARK  127  A    between atoms: _295  and  _296
REMARK  128  A    between atoms: _299  and  _301
REMARK  129  A    between atoms: _301  and  _302
REMARK  130  A    between atoms: _305  and  _307
REMARK  131  A    between atoms: _307  and  _308
REMARK  132  A    between atoms: _311  and  _313
REMARK  133  A    between atoms: _313  and  _314
REMARK  134  A    between atoms: _313  and  _316
REMARK  135  A    between atoms: _316  and  _317
REMARK  136  A    between atoms: _321  and  _322
REMARK  137  A    between atoms: _327  and  _329
REMARK  138  A    between atoms: _329  and  _330
REMARK  139  A    between atoms: _329  and  _332
REMARK  140  A    between atoms: _332  and  _333
REMARK  141  A    between atoms: _338  and  _340
REMARK  142  A    between atoms: _340  and  _341
REMARK  143  A    between atoms: _340  and  _343
REMARK  144  A    between atoms: _343  and  _344
REMARK  145  A    between atoms: _347  and  _349
REMARK  146  A    between atoms: _349  and  _350
REMARK  147  A    between atoms: _349  and  _352
REMARK  148  A    between atoms: _352  and  _353
REMARK  149  A    between atoms: _359  and  _361
REMARK  150  A    between atoms: _361  and  _362
REMARK  151  A    between atoms: _361  and  _364
REMARK  152  A    between atoms: _367  and  _369
REMARK  153  A    between atoms: _369  and  _370
REMARK  154  A    between atoms: _369  and  _372
REMARK  155  A    between atoms: _375  and  _377
REMARK  156  A    between atoms: _377  and  _378
REMARK  157  A    between atoms: _380  and  _382
REMARK  158  A    between atoms: _382  and  _383
REMARK  159  A    between atoms: _385  and  _387
REMARK  160  A    between atoms: _387  and  _388
REMARK  161  A    between atoms: _387  and  _390
REMARK  162  A    between atoms: _390  and  _391
REMARK  163  A    between atoms: _394  and  _396
REMARK  164  A    between atoms: _396  and  _397
REMARK  165  A    between atoms: _396  and  _399
REMARK  166  A    between atoms: _399  and  _400
REMARK  167  A    between atoms: _400  and  _402
REMARK  168  A    between atoms: _402  and  MG_565
REMARK  169  A    between atoms: _403  and  _405
REMARK  170  A    between atoms: _405  and  _406
REMARK  171  A    between atoms: _405  and  _408
REMARK  172  A    between atoms: _408  and  _409
REMARK  173  A    between atoms: _414  and  _415
REMARK  174  A    between atoms: _417  and  _419
REMARK  175  A    between atoms: _419  and  _420
REMARK  176  A    between atoms: _419  and  _422
REMARK  177  A    between atoms: _422  and  _423
REMARK  178  A    between atoms: _426  and  _428
REMARK  179  A    between atoms: _428  and  _429
REMARK  180  A    between atoms: _428  and  _431
REMARK  181  A    between atoms: _431  and  _432
REMARK  182  A    between atoms: _432  and  _433
REMARK  183  A    between atoms: _436  and  _438
REMARK  184  A    between atoms: _438  and  _439
REMARK  185  A    between atoms: _438  and  _441
REMARK  186  A    between atoms: _441  and  _442
REMARK  187  A    between atoms: _442  and  _443
REMARK  188  A    between atoms: _443  and  _444
REMARK  189  A    between atoms: _453  and  _455
REMARK  190  A    between atoms: _455  and  _456
REMARK  191  A    between atoms: _455  and  _458
REMARK  192  A    between atoms: _458  and  _459
REMARK  193  A    between atoms: _464  and  _465
REMARK  194  A    between atoms: _467  and  _469
REMARK  195  A    between atoms: _469  and  _470
REMARK  196  A    between atoms: _469  and  _472
REMARK  197  A    between atoms: _472  and  _473
REMARK  198  A    between atoms: _473  and  _474
REMARK  199  A    between atoms: _474  and  _475
REMARK  200  A    between atoms: _484  and  _486
REMARK  201  A    between atoms: _486  and  _487
REMARK  202  A    between atoms: _486  and  _489
REMARK  203  A    between atoms: _489  and  _490
REMARK  204  A    between atoms: _493  and  _495
REMARK  205  A    between atoms: _495  and  _496
REMARK  206  A    between atoms: _498  and  _500
REMARK  207  A    between atoms: _500  and  _501
REMARK  208  A    between atoms: _500  and  _503
REMARK  209  A    between atoms: _503  and  _504
REMARK  210  A    between atoms: _507  and  _509
REMARK  211  A    between atoms: _509  and  _510
REMARK  212  A    between atoms: _509  and  _512
REMARK  213  A    between atoms: _512  and  _513
REMARK  214  A    between atoms: _518  and  _519
REMARK  215  A    between atoms: _521  and  _523
REMARK  216  A    between atoms: _523  and  _524
REMARK  217  A    between atoms: _523  and  _526
REMARK  218  A    between atoms: _526  and  _527
REMARK  219  A    between atoms: _533  and  _535
REMARK  220  A    between atoms: _535  and  _536
REMARK  221  A    between atoms: _535  and  _538
REMARK  222  A    between atoms: _538  and  _539
REMARK  223  A    between atoms: _545  and  _547
REMARK  224  A    between atoms: _547  and  _548
REMARK  225  A    between atoms: _547  and  _550
REMARK  226  A    between atoms: _550  and  _551
REMARK  227  A    between atoms: _554  and  _556
REMARK  228  A    between atoms: _556  and  _557
REMARK  229  A    between atoms: _556  and  _559
REMARK  230  A    between atoms: _559  and  _560
REMARK                            x       y       z     vdW  Elec       q    Type
REMARK                         _______ _______ _______ _____ _____    ______ ____
ROOT
ATOM      1  O   HOH     1       1.781   9.319 127.857  0.00  0.00    +0.000 OA
ENDROOT
TORSDOF 0
REMARK  Name = ../refined-set-2016/4rhx/4rhx_pocket.pdb
REMARK  230 active torsions:
REMARK  status: ('A' for Active; 'I' for Inactive)
REMARK    1  A    between atoms: _1  and  _3
REMARK    2  A    between atoms: _3  and  _4
REMARK    3  A    between atoms: _3  and  _6
REMARK    4  A    between atoms: _6  and  _7
REMARK    5  A    between atoms: _10  and  _12
REMARK    6  A    between atoms: _12  and  _13
REMARK    7  A    between atoms: _12  and  _15
REMARK    8  A    between atoms: _18  and  _20
REMARK    9  A    between atoms: _20  and  _21
REMARK   10  A    between atoms: _20  and  _23
REMARK   11  A    between atoms: _23  and  _24
REMARK   12  A    between atoms: _27  and  _29
REMARK   13  A    between atoms: _29  and  _30
REMARK   14  A    between atoms: _29  and  _32
REMARK   15  A    between atoms: _32  and  _33
REMARK   16  A    between atoms: _33  and  _34
REMARK   17  A    between atoms: _34  and  _35
REMARK   18  A    between atoms: _35  and  _36
REMARK   19  A    between atoms: _40  and  _42
REMARK   20  A    between atoms: _42  and  _43
REMARK   21  A    between atoms: _45  and  _47
REMARK   22  A    between atoms: _47  and  _48
REMARK   23  A    between atoms: _51  and  _53
REMARK   24  A    between atoms: _53  and  _54
REMARK   25  A    between atoms: _53  and  _56
REMARK   26  A    between atoms: _59  and  _61
REMARK   27  A    between atoms: _61  and  _62
REMARK   28  A    between atoms: _61  and  _64
REMARK   29  A    between atoms: _64  and  _65
REMARK   30  A    between atoms: _65  and  _66
REMARK   31  A    between atoms: _68  and  _70
REMARK   32  A    between atoms: _70  and  _71
REMARK   33  A    between atoms: _74  and  _76
REMARK   34  A    between atoms: _76  and  _77
REMARK   35  A    between atoms: _76  and  _79
REMARK   36  A    between atoms: _82  and  _84
REMARK   37  A    between atoms: _84  and  _85
REMARK   38  A    between atoms: _84  and  _87
REMARK   39  A    between atoms: _87  and  _88
REMARK   40  A    between atoms: _90  and  _92
REMARK   41  A    between atoms: _92  and  _93
REMARK   42  A    between atoms: _92  and  _95
REMARK   43  A    between atoms: _95  and  _96
REMARK   44  A    between atoms: _98  and  _100
REMARK   45  A    between atoms: _100  and  _101
REMARK   46  A    between atoms: _100  and  _103
REMARK   47  A    between atoms: _103  and  _104
REMARK   48  A    between atoms: _109  and  _110
REMARK   49  A    between atoms: _112  and  _114
REMARK   50  A    between atoms: _114  and  _115
REMARK   51  A    between atoms: _117  and  _119
REMARK   52  A    between atoms: _119  and  _120
REMARK   53  A    between atoms: _119  and  _122
REMARK   54  A    between atoms: _125  and  _127
REMARK   55  A    between atoms: _127  and  _128
REMARK   56  A    between atoms: _127  and  _130
REMARK   57  A    between atoms: _130  and  _131
REMARK   58  A    between atoms: _131  and  _132
REMARK   59  A    between atoms: _132  and  _133
REMARK   60  A    between atoms: _142  and  _144
REMARK   61  A    between atoms: _144  and  _145
REMARK   62  A    between atoms: _144  and  _147
REMARK   63  A    between atoms: _147  and  _148
REMARK   64  A    between atoms: _151  and  _153
REMARK   65  A    between atoms: _153  and  _154
REMARK   66  A    between atoms: _153  and  _156
REMARK   67  A    between atoms: _156  and  _157
REMARK   68  A    between atoms: _157  and  _158
REMARK   69  A    between atoms: _161  and  _163
REMARK   70  A    between atoms: _163  and  _164
REMARK   71  A    between atoms: _163  and  _166
REMARK   72  A    between atoms: _166  and  _167
REMARK   73  A    between atoms: _170  and  _172
REMARK   74  A    between atoms: _172  and  _173
REMARK   75  A    between atoms: _172  and  _175
REMARK   76  A    between atoms: _178  and  _180
REMARK   77  A    between atoms: _180  and  _181
REMARK   78  A    between atoms: _180  and  _183
REMARK   79  A    between atoms: _186  and  _188
REMARK   80  A    between atoms: _188  and  _189
REMARK   81  A    between atoms: _188  and  _191
REMARK   82  A    between atoms: _191  and  _192
REMARK   83  A    between atoms: _195  and  _197
REMARK   84  A    between atoms: _197  and  _198
REMARK   85  A    between atoms: _197  and  _200
REMARK   86  A    between atoms: _200  and  _201
REMARK   87  A    between atoms: _203  and  _205
REMARK   88  A    between atoms: _205  and  _206
REMARK   89  A    between atoms: _208  and  _210
REMARK   90  A    between atoms: _210  and  _211
REMARK   91  A    between atoms: _210  and  _213
REMARK   92  A    between atoms: _213  and  _214
REMARK   93  A    between atoms: _217  and  _219
REMARK   94  A    between atoms: _219  and  _220
REMARK   95  A    between atoms: _219  and  _222
REMARK   96  A    between atoms: _222  and  _223
REMARK   97  A    between atoms: _226  and  _228
REMARK   98  A    between atoms: _228  and  _229
REMARK   99  A    between atoms: _228  and  _231
REMARK  100  A    between atoms: _231  and  _232
REMARK  101  A    between atoms: _235  and  _237
REMARK  102  A    between atoms: _237  and  _238
REMARK  103  A    between atoms: _237  and  _240
REMARK  104  A    between atoms: _240  and  _241
REMARK  105  A    between atoms: _243  and  _245
REMARK  106  A    between atoms: _245  and  _246
REMARK  107  A    between atoms: _245  and  _248
REMARK  108  A    between atoms: _248  and  _249
REMARK  109  A    between atoms: _259  and  _261
REMARK  110  A    between atoms: _261  and  _262
REMARK  111  A    between atoms: _261  and  _264
REMARK  112  A    between atoms: _264  and  _265
REMARK  113  A    between atoms: _268  and  _270
REMARK  114  A    between atoms: _270  and  _271
REMARK  115  A    between atoms: _270  and  _273
REMARK  116  A    between atoms: _273  and  _274
REMARK  117  A    between atoms: _277  and  _279
REMARK  118  A    between atoms: _279  and  _280
REMARK  119  A    between atoms: _279  and  _282
REMARK  120  A    between atoms: _282  and  _283
REMARK  121  A    between atoms: _283  and  _284
REMARK  122  A    between atoms: _284  and  _285
REMARK  123  A    between atoms: _285  and  _286
REMARK  124  A    between atoms: _290  and  _292
REMARK  125  A    between atoms: _292  and  _293
REMARK  126  A    between atoms: _292  and  _295
REMARK  127  A    between atoms: _295  and  _296
REMARK  128  A    between atoms: _299  and  _301
REMARK  129  A    between atoms: _301  and  _302
REMARK  130  A    between atoms: _305  and  _307
REMARK  131  A    between atoms: _307  and  _308
REMARK  132  A    between atoms: _311  and  _313
REMARK  133  A    between atoms: _313  and  _314
REMARK  134  A    between atoms: _313  and  _316
REMARK  135  A    between atoms: _316  and  _317
REMARK  136  A    between atoms: _321  and  _322
REMARK  137  A    between atoms: _327  and  _329
REMARK  138  A    between atoms: _329  and  _330
REMARK  139  A    between atoms: _329  and  _332
REMARK  140  A    between atoms: _332  and  _333
REMARK  141  A    between atoms: _338  and  _340
REMARK  142  A    between atoms: _340  and  _341
REMARK  143  A    between atoms: _340  and  _343
REMARK  144  A    between atoms: _343  and  _344
REMARK  145  A    between atoms: _347  and  _349
REMARK  146  A    between atoms: _349  and  _350
REMARK  147  A    between atoms: _349  and  _352
REMARK  148  A    between atoms: _352  and  _353
REMARK  149  A    between atoms: _359  and  _361
REMARK  150  A    between atoms: _361  and  _362
REMARK  151  A    between atoms: _361  and  _364
REMARK  152  A    between atoms: _367  and  _369
REMARK  153  A    between atoms: _369  and  _370
REMARK  154  A    between atoms: _369  and  _372
REMARK  155  A    between atoms: _375  and  _377
REMARK  156  A    between atoms: _377  and  _378
REMARK  157  A    between atoms: _380  and  _382
REMARK  158  A    between atoms: _382  and  _383
REMARK  159  A    between atoms: _385  and  _387
REMARK  160  A    between atoms: _387  and  _388
REMARK  161  A    between atoms: _387  and  _390
REMARK  162  A    between atoms: _390  and  _391
REMARK  163  A    between atoms: _394  and  _396
REMARK  164  A    between atoms: _396  and  _397
REMARK  165  A    between atoms: _396  and  _399
REMARK  166  A    between atoms: _399  and  _400
REMARK  167  A    between atoms: _400  and  _402
REMARK  168  A    between atoms: _402  and  MG_565
REMARK  169  A    between atoms: _403  and  _405
REMARK  170  A    between atoms: _405  and  _406
REMARK  171  A    between atoms: _405  and  _408
REMARK  172  A    between atoms: _408  and  _409
REMARK  173  A    between atoms: _414  and  _415
REMARK  174  A    between atoms: _417  and  _419
REMARK  175  A    between atoms: _419  and  _420
REMARK  176  A    between atoms: _419  and  _422
REMARK  177  A    between atoms: _422  and  _423
REMARK  178  A    between atoms: _426  and  _428
REMARK  179  A    between atoms: _428  and  _429
REMARK  180  A    between atoms: _428  and  _431
REMARK  181  A    between atoms: _431  and  _432
REMARK  182  A    between atoms: _432  and  _433
REMARK  183  A    between atoms: _436  and  _438
REMARK  184  A    between atoms: _438  and  _439
REMARK  185  A    between atoms: _438  and  _441
REMARK  186  A    between atoms: _441  and  _442
REMARK  187  A    between atoms: _442  and  _443
REMARK  188  A    between atoms: _443  and  _444
REMARK  189  A    between atoms: _453  and  _455
REMARK  190  A    between atoms: _455  and  _456
REMARK  191  A    between atoms: _455  and  _458
REMARK  192  A    between atoms: _458  and  _459
REMARK  193  A    between atoms: _464  and  _465
REMARK  194  A    between atoms: _467  and  _469
REMARK  195  A    between atoms: _469  and  _470
REMARK  196  A    between atoms: _469  and  _472
REMARK  197  A    between atoms: _472  and  _473
REMARK  198  A    between atoms: _473  and  _474
REMARK  199  A    between atoms: _474  and  _475
REMARK  200  A    between atoms: _484  and  _486
REMARK  201  A    between atoms: _486  and  _487
REMARK  202  A    between atoms: _486  and  _489
REMARK  203  A    between atoms: _489  and  _490
REMARK  204  A    between atoms: _493  and  _495
REMARK  205  A    between atoms: _495  and  _496
REMARK  206  A    between atoms: _498  and  _500
REMARK  207  A    between atoms: _500  and  _501
REMARK  208  A    between atoms: _500  and  _503
REMARK  209  A    between atoms: _503  and  _504
REMARK  210  A    between atoms: _507  and  _509
REMARK  211  A    between atoms: _509  and  _510
REMARK  212  A    between atoms: _509  and  _512
REMARK  213  A    between atoms: _512  and  _513
REMARK  214  A    between atoms: _518  and  _519
REMARK  215  A    between atoms: _521  and  _523
REMARK  216  A    between atoms: _523  and  _524
REMARK  217  A    between atoms: _523  and  _526
REMARK  218  A    between atoms: _526  and  _527
REMARK  219  A    between atoms: _533  and  _535
REMARK  220  A    between atoms: _535  and  _536
REMARK  221  A    between atoms: _535  and  _538
REMARK  222  A    between atoms: _538  and  _539
REMARK  223  A    between atoms: _545  and  _547
REMARK  224  A    between atoms: _547  and  _548
REMARK  225  A    between atoms: _547  and  _550
REMARK  226  A    between atoms: _550  and  _551
REMARK  227  A    between atoms: _554  and  _556
REMARK  228  A    between atoms: _556  and  _557
REMARK  229  A    between atoms: _556  and  _559
REMARK  230  A    between atoms: _559  and  _560
REMARK                            x       y       z     vdW  Elec       q    Type
REMARK                         _______ _______ _______ _____ _____    ______ ____
ROOT
ATOM      1  O   HOH     1      -2.508  17.075 119.690  0.00  0.00    +0.000 OA
ENDROOT
TORSDOF 0
REMARK  Name = ../refined-set-2016/4rhx/4rhx_pocket.pdb
REMARK  230 active torsions:
REMARK  status: ('A' for Active; 'I' for Inactive)
REMARK    1  A    between atoms: _1  and  _3
REMARK    2  A    between atoms: _3  and  _4
REMARK    3  A    between atoms: _3  and  _6
REMARK    4  A    between atoms: _6  and  _7
REMARK    5  A    between atoms: _10  and  _12
REMARK    6  A    between atoms: _12  and  _13
REMARK    7  A    between atoms: _12  and  _15
REMARK    8  A    between atoms: _18  and  _20
REMARK    9  A    between atoms: _20  and  _21
REMARK   10  A    between atoms: _20  and  _23
REMARK   11  A    between atoms: _23  and  _24
REMARK   12  A    between atoms: _27  and  _29
REMARK   13  A    between atoms: _29  and  _30
REMARK   14  A    between atoms: _29  and  _32
REMARK   15  A    between atoms: _32  and  _33
REMARK   16  A    between atoms: _33  and  _34
REMARK   17  A    between atoms: _34  and  _35
REMARK   18  A    between atoms: _35  and  _36
REMARK   19  A    between atoms: _40  and  _42
REMARK   20  A    between atoms: _42  and  _43
REMARK   21  A    between atoms: _45  and  _47
REMARK   22  A    between atoms: _47  and  _48
REMARK   23  A    between atoms: _51  and  _53
REMARK   24  A    between atoms: _53  and  _54
REMARK   25  A    between atoms: _53  and  _56
REMARK   26  A    between atoms: _59  and  _61
REMARK   27  A    between atoms: _61  and  _62
REMARK   28  A    between atoms: _61  and  _64
REMARK   29  A    between atoms: _64  and  _65
REMARK   30  A    between atoms: _65  and  _66
REMARK   31  A    between atoms: _68  and  _70
REMARK   32  A    between atoms: _70  and  _71
REMARK   33  A    between atoms: _74  and  _76
REMARK   34  A    between atoms: _76  and  _77
REMARK   35  A    between atoms: _76  and  _79
REMARK   36  A    between atoms: _82  and  _84
REMARK   37  A    between atoms: _84  and  _85
REMARK   38  A    between atoms: _84  and  _87
REMARK   39  A    between atoms: _87  and  _88
REMARK   40  A    between atoms: _90  and  _92
REMARK   41  A    between atoms: _92  and  _93
REMARK   42  A    between atoms: _92  and  _95
REMARK   43  A    between atoms: _95  and  _96
REMARK   44  A    between atoms: _98  and  _100
REMARK   45  A    between atoms: _100  and  _101
REMARK   46  A    between atoms: _100  and  _103
REMARK   47  A    between atoms: _103  and  _104
REMARK   48  A    between atoms: _109  and  _110
REMARK   49  A    between atoms: _112  and  _114
REMARK   50  A    between atoms: _114  and  _115
REMARK   51  A    between atoms: _117  and  _119
REMARK   52  A    between atoms: _119  and  _120
REMARK   53  A    between atoms: _119  and  _122
REMARK   54  A    between atoms: _125  and  _127
REMARK   55  A    between atoms: _127  and  _128
REMARK   56  A    between atoms: _127  and  _130
REMARK   57  A    between atoms: _130  and  _131
REMARK   58  A    between atoms: _131  and  _132
REMARK   59  A    between atoms: _132  and  _133
REMARK   60  A    between atoms: _142  and  _144
REMARK   61  A    between atoms: _144  and  _145
REMARK   62  A    between atoms: _144  and  _147
REMARK   63  A    between atoms: _147  and  _148
REMARK   64  A    between atoms: _151  and  _153
REMARK   65  A    between atoms: _153  and  _154
REMARK   66  A    between atoms: _153  and  _156
REMARK   67  A    between atoms: _156  and  _157
REMARK   68  A    between atoms: _157  and  _158
REMARK   69  A    between atoms: _161  and  _163
REMARK   70  A    between atoms: _163  and  _164
REMARK   71  A    between atoms: _163  and  _166
REMARK   72  A    between atoms: _166  and  _167
REMARK   73  A    between atoms: _170  and  _172
REMARK   74  A    between atoms: _172  and  _173
REMARK   75  A    between atoms: _172  and  _175
REMARK   76  A    between atoms: _178  and  _180
REMARK   77  A    between atoms: _180  and  _181
REMARK   78  A    between atoms: _180  and  _183
REMARK   79  A    between atoms: _186  and  _188
REMARK   80  A    between atoms: _188  and  _189
REMARK   81  A    between atoms: _188  and  _191
REMARK   82  A    between atoms: _191  and  _192
REMARK   83  A    between atoms: _195  and  _197
REMARK   84  A    between atoms: _197  and  _198
REMARK   85  A    between atoms: _197  and  _200
REMARK   86  A    between atoms: _200  and  _201
REMARK   87  A    between atoms: _203  and  _205
REMARK   88  A    between atoms: _205  and  _206
REMARK   89  A    between atoms: _208  and  _210
REMARK   90  A    between atoms: _210  and  _211
REMARK   91  A    between atoms: _210  and  _213
REMARK   92  A    between atoms: _213  and  _214
REMARK   93  A    between atoms: _217  and  _219
REMARK   94  A    between atoms: _219  and  _220
REMARK   95  A    between atoms: _219  and  _222
REMARK   96  A    between atoms: _222  and  _223
REMARK   97  A    between atoms: _226  and  _228
REMARK   98  A    between atoms: _228  and  _229
REMARK   99  A    between atoms: _228  and  _231
REMARK  100  A    between atoms: _231  and  _232
REMARK  101  A    between atoms: _235  and  _237
REMARK  102  A    between atoms: _237  and  _238
REMARK  103  A    between atoms: _237  and  _240
REMARK  104  A    between atoms: _240  and  _241
REMARK  105  A    between atoms: _243  and  _245
REMARK  106  A    between atoms: _245  and  _246
REMARK  107  A    between atoms: _245  and  _248
REMARK  108  A    between atoms: _248  and  _249
REMARK  109  A    between atoms: _259  and  _261
REMARK  110  A    between atoms: _261  and  _262
REMARK  111  A    between atoms: _261  and  _264
REMARK  112  A    between atoms: _264  and  _265
REMARK  113  A    between atoms: _268  and  _270
REMARK  114  A    between atoms: _270  and  _271
REMARK  115  A    between atoms: _270  and  _273
REMARK  116  A    between atoms: _273  and  _274
REMARK  117  A    between atoms: _277  and  _279
REMARK  118  A    between atoms: _279  and  _280
REMARK  119  A    between atoms: _279  and  _282
REMARK  120  A    between atoms: _282  and  _283
REMARK  121  A    between atoms: _283  and  _284
REMARK  122  A    between atoms: _284  and  _285
REMARK  123  A    between atoms: _285  and  _286
REMARK  124  A    between atoms: _290  and  _292
REMARK  125  A    between atoms: _292  and  _293
REMARK  126  A    between atoms: _292  and  _295
REMARK  127  A    between atoms: _295  and  _296
REMARK  128  A    between atoms: _299  and  _301
REMARK  129  A    between atoms: _301  and  _302
REMARK  130  A    between atoms: _305  and  _307
REMARK  131  A    between atoms: _307  and  _308
REMARK  132  A    between atoms: _311  and  _313
REMARK  133  A    between atoms: _313  and  _314
REMARK  134  A    between atoms: _313  and  _316
REMARK  135  A    between atoms: _316  and  _317
REMARK  136  A    between atoms: _321  and  _322
REMARK  137  A    between atoms: _327  and  _329
REMARK  138  A    between atoms: _329  and  _330
REMARK  139  A    between atoms: _329  and  _332
REMARK  140  A    between atoms: _332  and  _333
REMARK  141  A    between atoms: _338  and  _340
REMARK  142  A    between atoms: _340  and  _341
REMARK  143  A    between atoms: _340  and  _343
REMARK  144  A    between atoms: _343  and  _344
REMARK  145  A    between atoms: _347  and  _349
REMARK  146  A    between atoms: _349  and  _350
REMARK  147  A    between atoms: _349  and  _352
REMARK  148  A    between atoms: _352  and  _353
REMARK  149  A    between atoms: _359  and  _361
REMARK  150  A    between atoms: _361  and  _362
REMARK  151  A    between atoms: _361  and  _364
REMARK  152  A    between atoms: _367  and  _369
REMARK  153  A    between atoms: _369  and  _370
REMARK  154  A    between atoms: _369  and  _372
REMARK  155  A    between atoms: _375  and  _377
REMARK  156  A    between atoms: _377  and  _378
REMARK  157  A    between atoms: _380  and  _382
REMARK  158  A    between atoms: _382  and  _383
REMARK  159  A    between atoms: _385  and  _387
REMARK  160  A    between atoms: _387  and  _388
REMARK  161  A    between atoms: _387  and  _390
REMARK  162  A    between atoms: _390  and  _391
REMARK  163  A    between atoms: _394  and  _396
REMARK  164  A    between atoms: _396  and  _397
REMARK  165  A    between atoms: _396  and  _399
REMARK  166  A    between atoms: _399  and  _400
REMARK  167  A    between atoms: _400  and  _402
REMARK  168  A    between atoms: _402  and  MG_565
REMARK  169  A    between atoms: _403  and  _405
REMARK  170  A    between atoms: _405  and  _406
REMARK  171  A    between atoms: _405  and  _408
REMARK  172  A    between atoms: _408  and  _409
REMARK  173  A    between atoms: _414  and  _415
REMARK  174  A    between atoms: _417  and  _419
REMARK  175  A    between atoms: _419  and  _420
REMARK  176  A    between atoms: _419  and  _422
REMARK  177  A    between atoms: _422  and  _423
REMARK  178  A    between atoms: _426  and  _428
REMARK  179  A    between atoms: _428  and  _429
REMARK  180  A    between atoms: _428  and  _431
REMARK  181  A    between atoms: _431  and  _432
REMARK  182  A    between atoms: _432  and  _433
REMARK  183  A    between atoms: _436  and  _438
REMARK  184  A    between atoms: _438  and  _439
REMARK  185  A    between atoms: _438  and  _441
REMARK  186  A    between atoms: _441  and  _442
REMARK  187  A    between atoms: _442  and  _443
REMARK  188  A    between atoms: _443  and  _444
REMARK  189  A    between atoms: _453  and  _455
REMARK  190  A    between atoms: _455  and  _456
REMARK  191  A    between atoms: _455  and  _458
REMARK  192  A    between atoms: _458  and  _459
REMARK  193  A    between atoms: _464  and  _465
REMARK  194  A    between atoms: _467  and  _469
REMARK  195  A    between atoms: _469  and  _470
REMARK  196  A    between atoms: _469  and  _472
REMARK  197  A    between atoms: _472  and  _473
REMARK  198  A    between atoms: _473  and  _474
REMARK  199  A    between atoms: _474  and  _475
REMARK  200  A    between atoms: _484  and  _486
REMARK  201  A    between atoms: _486  and  _487
REMARK  202  A    between atoms: _486  and  _489
REMARK  203  A    between atoms: _489  and  _490
REMARK  204  A    between atoms: _493  and  _495
REMARK  205  A    between atoms: _495  and  _496
REMARK  206  A    between atoms: _498  and  _500
REMARK  207  A    between atoms: _500  and  _501
REMARK  208  A    between atoms: _500  and  _503
REMARK  209  A    between atoms: _503  and  _504
REMARK  210  A    between atoms: _507  and  _509
REMARK  211  A    between atoms: _509  and  _510
REMARK  212  A    between atoms: _509  and  _512
REMARK  213  A    between atoms: _512  and  _513
REMARK  214  A    between atoms: _518  and  _519
REMARK  215  A    between atoms: _521  and  _523
REMARK  216  A    between atoms: _523  and  _524
REMARK  217  A    between atoms: _523  and  _526
REMARK  218  A    between atoms: _526  and  _527
REMARK  219  A    between atoms: _533  and  _535
REMARK  220  A    between atoms: _535  and  _536
REMARK  221  A    between atoms: _535  and  _538
REMARK  222  A    between atoms: _538  and  _539
REMARK  223  A    between atoms: _545  and  _547
REMARK  224  A    between atoms: _547  and  _548
REMARK  225  A    between atoms: _547  and  _550
REMARK  226  A    between atoms: _550  and  _551
REMARK  227  A    between atoms: _554  and  _556
REMARK  228  A    between atoms: _556  and  _557
REMARK  229  A    between atoms: _556  and  _559
REMARK  230  A    between atoms: _559  and  _560
REMARK                            x       y       z     vdW  Elec       q    Type
REMARK                         _______ _______ _______ _____ _____    ______ ____
ROOT
ATOM      1  O   HOH     1     -10.823  20.576 116.691  0.00  0.00    +0.000 OA
ENDROOT
TORSDOF 0
REMARK  Name = ../refined-set-2016/4rhx/4rhx_pocket.pdb
REMARK  230 active torsions:
REMARK  status: ('A' for Active; 'I' for Inactive)
REMARK    1  A    between atoms: _1  and  _3
REMARK    2  A    between atoms: _3  and  _4
REMARK    3  A    between atoms: _3  and  _6
REMARK    4  A    between atoms: _6  and  _7
REMARK    5  A    between atoms: _10  and  _12
REMARK    6  A    between atoms: _12  and  _13
REMARK    7  A    between atoms: _12  and  _15
REMARK    8  A    between atoms: _18  and  _20
REMARK    9  A    between atoms: _20  and  _21
REMARK   10  A    between atoms: _20  and  _23
REMARK   11  A    between atoms: _23  and  _24
REMARK   12  A    between atoms: _27  and  _29
REMARK   13  A    between atoms: _29  and  _30
REMARK   14  A    between atoms: _29  and  _32
REMARK   15  A    between atoms: _32  and  _33
REMARK   16  A    between atoms: _33  and  _34
REMARK   17  A    between atoms: _34  and  _35
REMARK   18  A    between atoms: _35  and  _36
REMARK   19  A    between atoms: _40  and  _42
REMARK   20  A    between atoms: _42  and  _43
REMARK   21  A    between atoms: _45  and  _47
REMARK   22  A    between atoms: _47  and  _48
REMARK   23  A    between atoms: _51  and  _53
REMARK   24  A    between atoms: _53  and  _54
REMARK   25  A    between atoms: _53  and  _56
REMARK   26  A    between atoms: _59  and  _61
REMARK   27  A    between atoms: _61  and  _62
REMARK   28  A    between atoms: _61  and  _64
REMARK   29  A    between atoms: _64  and  _65
REMARK   30  A    between atoms: _65  and  _66
REMARK   31  A    between atoms: _68  and  _70
REMARK   32  A    between atoms: _70  and  _71
REMARK   33  A    between atoms: _74  and  _76
REMARK   34  A    between atoms: _76  and  _77
REMARK   35  A    between atoms: _76  and  _79
REMARK   36  A    between atoms: _82  and  _84
REMARK   37  A    between atoms: _84  and  _85
REMARK   38  A    between atoms: _84  and  _87
REMARK   39  A    between atoms: _87  and  _88
REMARK   40  A    between atoms: _90  and  _92
REMARK   41  A    between atoms: _92  and  _93
REMARK   42  A    between atoms: _92  and  _95
REMARK   43  A    between atoms: _95  and  _96
REMARK   44  A    between atoms: _98  and  _100
REMARK   45  A    between atoms: _100  and  _101
REMARK   46  A    between atoms: _100  and  _103
REMARK   47  A    between atoms: _103  and  _104
REMARK   48  A    between atoms: _109  and  _110
REMARK   49  A    between atoms: _112  and  _114
REMARK   50  A    between atoms: _114  and  _115
REMARK   51  A    between atoms: _117  and  _119
REMARK   52  A    between atoms: _119  and  _120
REMARK   53  A    between atoms: _119  and  _122
REMARK   54  A    between atoms: _125  and  _127
REMARK   55  A    between atoms: _127  and  _128
REMARK   56  A    between atoms: _127  and  _130
REMARK   57  A    between atoms: _130  and  _131
REMARK   58  A    between atoms: _131  and  _132
REMARK   59  A    between atoms: _132  and  _133
REMARK   60  A    between atoms: _142  and  _144
REMARK   61  A    between atoms: _144  and  _145
REMARK   62  A    between atoms: _144  and  _147
REMARK   63  A    between atoms: _147  and  _148
REMARK   64  A    between atoms: _151  and  _153
REMARK   65  A    between atoms: _153  and  _154
REMARK   66  A    between atoms: _153  and  _156
REMARK   67  A    between atoms: _156  and  _157
REMARK   68  A    between atoms: _157  and  _158
REMARK   69  A    between atoms: _161  and  _163
REMARK   70  A    between atoms: _163  and  _164
REMARK   71  A    between atoms: _163  and  _166
REMARK   72  A    between atoms: _166  and  _167
REMARK   73  A    between atoms: _170  and  _172
REMARK   74  A    between atoms: _172  and  _173
REMARK   75  A    between atoms: _172  and  _175
REMARK   76  A    between atoms: _178  and  _180
REMARK   77  A    between atoms: _180  and  _181
REMARK   78  A    between atoms: _180  and  _183
REMARK   79  A    between atoms: _186  and  _188
REMARK   80  A    between atoms: _188  and  _189
REMARK   81  A    between atoms: _188  and  _191
REMARK   82  A    between atoms: _191  and  _192
REMARK   83  A    between atoms: _195  and  _197
REMARK   84  A    between atoms: _197  and  _198
REMARK   85  A    between atoms: _197  and  _200
REMARK   86  A    between atoms: _200  and  _201
REMARK   87  A    between atoms: _203  and  _205
REMARK   88  A    between atoms: _205  and  _206
REMARK   89  A    between atoms: _208  and  _210
REMARK   90  A    between atoms: _210  and  _211
REMARK   91  A    between atoms: _210  and  _213
REMARK   92  A    between atoms: _213  and  _214
REMARK   93  A    between atoms: _217  and  _219
REMARK   94  A    between atoms: _219  and  _220
REMARK   95  A    between atoms: _219  and  _222
REMARK   96  A    between atoms: _222  and  _223
REMARK   97  A    between atoms: _226  and  _228
REMARK   98  A    between atoms: _228  and  _229
REMARK   99  A    between atoms: _228  and  _231
REMARK  100  A    between atoms: _231  and  _232
REMARK  101  A    between atoms: _235  and  _237
REMARK  102  A    between atoms: _237  and  _238
REMARK  103  A    between atoms: _237  and  _240
REMARK  104  A    between atoms: _240  and  _241
REMARK  105  A    between atoms: _243  and  _245
REMARK  106  A    between atoms: _245  and  _246
REMARK  107  A    between atoms: _245  and  _248
REMARK  108  A    between atoms: _248  and  _249
REMARK  109  A    between atoms: _259  and  _261
REMARK  110  A    between atoms: _261  and  _262
REMARK  111  A    between atoms: _261  and  _264
REMARK  112  A    between atoms: _264  and  _265
REMARK  113  A    between atoms: _268  and  _270
REMARK  114  A    between atoms: _270  and  _271
REMARK  115  A    between atoms: _270  and  _273
REMARK  116  A    between atoms: _273  and  _274
REMARK  117  A    between atoms: _277  and  _279
REMARK  118  A    between atoms: _279  and  _280
REMARK  119  A    between atoms: _279  and  _282
REMARK  120  A    between atoms: _282  and  _283
REMARK  121  A    between atoms: _283  and  _284
REMARK  122  A    between atoms: _284  and  _285
REMARK  123  A    between atoms: _285  and  _286
REMARK  124  A    between atoms: _290  and  _292
REMARK  125  A    between atoms: _292  and  _293
REMARK  126  A    between atoms: _292  and  _295
REMARK  127  A    between atoms: _295  and  _296
REMARK  128  A    between atoms: _299  and  _301
REMARK  129  A    between atoms: _301  and  _302
REMARK  130  A    between atoms: _305  and  _307
REMARK  131  A    between atoms: _307  and  _308
REMARK  132  A    between atoms: _311  and  _313
REMARK  133  A    between atoms: _313  and  _314
REMARK  134  A    between atoms: _313  and  _316
REMARK  135  A    between atoms: _316  and  _317
REMARK  136  A    between atoms: _321  and  _322
REMARK  137  A    between atoms: _327  and  _329
REMARK  138  A    between atoms: _329  and  _330
REMARK  139  A    between atoms: _329  and  _332
REMARK  140  A    between atoms: _332  and  _333
REMARK  141  A    between atoms: _338  and  _340
REMARK  142  A    between atoms: _340  and  _341
REMARK  143  A    between atoms: _340  and  _343
REMARK  144  A    between atoms: _343  and  _344
REMARK  145  A    between atoms: _347  and  _349
REMARK  146  A    between atoms: _349  and  _350
REMARK  147  A    between atoms: _349  and  _352
REMARK  148  A    between atoms: _352  and  _353
REMARK  149  A    between atoms: _359  and  _361
REMARK  150  A    between atoms: _361  and  _362
REMARK  151  A    between atoms: _361  and  _364
REMARK  152  A    between atoms: _367  and  _369
REMARK  153  A    between atoms: _369  and  _370
REMARK  154  A    between atoms: _369  and  _372
REMARK  155  A    between atoms: _375  and  _377
REMARK  156  A    between atoms: _377  and  _378
REMARK  157  A    between atoms: _380  and  _382
REMARK  158  A    between atoms: _382  and  _383
REMARK  159  A    between atoms: _385  and  _387
REMARK  160  A    between atoms: _387  and  _388
REMARK  161  A    between atoms: _387  and  _390
REMARK  162  A    between atoms: _390  and  _391
REMARK  163  A    between atoms: _394  and  _396
REMARK  164  A    between atoms: _396  and  _397
REMARK  165  A    between atoms: _396  and  _399
REMARK  166  A    between atoms: _399  and  _400
REMARK  167  A    between atoms: _400  and  _402
REMARK  168  A    between atoms: _402  and  MG_565
REMARK  169  A    between atoms: _403  and  _405
REMARK  170  A    between atoms: _405  and  _406
REMARK  171  A    between atoms: _405  and  _408
REMARK  172  A    between atoms: _408  and  _409
REMARK  173  A    between atoms: _414  and  _415
REMARK  174  A    between atoms: _417  and  _419
REMARK  175  A    between atoms: _419  and  _420
REMARK  176  A    between atoms: _419  and  _422
REMARK  177  A    between atoms: _422  and  _423
REMARK  178  A    between atoms: _426  and  _428
REMARK  179  A    between atoms: _428  and  _429
REMARK  180  A    between atoms: _428  and  _431
REMARK  181  A    between atoms: _431  and  _432
REMARK  182  A    between atoms: _432  and  _433
REMARK  183  A    between atoms: _436  and  _438
REMARK  184  A    between atoms: _438  and  _439
REMARK  185  A    between atoms: _438  and  _441
REMARK  186  A    between atoms: _441  and  _442
REMARK  187  A    between atoms: _442  and  _443
REMARK  188  A    between atoms: _443  and  _444
REMARK  189  A    between atoms: _453  and  _455
REMARK  190  A    between atoms: _455  and  _456
REMARK  191  A    between atoms: _455  and  _458
REMARK  192  A    between atoms: _458  and  _459
REMARK  193  A    between atoms: _464  and  _465
REMARK  194  A    between atoms: _467  and  _469
REMARK  195  A    between atoms: _469  and  _470
REMARK  196  A    between atoms: _469  and  _472
REMARK  197  A    between atoms: _472  and  _473
REMARK  198  A    between atoms: _473  and  _474
REMARK  199  A    between atoms: _474  and  _475
REMARK  200  A    between atoms: _484  and  _486
REMARK  201  A    between atoms: _486  and  _487
REMARK  202  A    between atoms: _486  and  _489
REMARK  203  A    between atoms: _489  and  _490
REMARK  204  A    between atoms: _493  and  _495
REMARK  205  A    between atoms: _495  and  _496
REMARK  206  A    between atoms: _498  and  _500
REMARK  207  A    between atoms: _500  and  _501
REMARK  208  A    between atoms: _500  and  _503
REMARK  209  A    between atoms: _503  and  _504
REMARK  210  A    between atoms: _507  and  _509
REMARK  211  A    between atoms: _509  and  _510
REMARK  212  A    between atoms: _509  and  _512
REMARK  213  A    between atoms: _512  and  _513
REMARK  214  A    between atoms: _518  and  _519
REMARK  215  A    between atoms: _521  and  _523
REMARK  216  A    between atoms: _523  and  _524
REMARK  217  A    between atoms: _523  and  _526
REMARK  218  A    between atoms: _526  and  _527
REMARK  219  A    between atoms: _533  and  _535
REMARK  220  A    between atoms: _535  and  _536
REMARK  221  A    between atoms: _535  and  _538
REMARK  222  A    between atoms: _538  and  _539
REMARK  223  A    between atoms: _545  and  _547
REMARK  224  A    between atoms: _547  and  _548
REMARK  225  A    between atoms: _547  and  _550
REMARK  226  A    between atoms: _550  and  _551
REMARK  227  A    between atoms: _554  and  _556
REMARK  228  A    between atoms: _556  and  _557
REMARK  229  A    between atoms: _556  and  _559
REMARK  230  A    between atoms: _559  and  _560
REMARK                            x       y       z     vdW  Elec       q    Type
REMARK                         _______ _______ _______ _____ _____    ______ ____
ROOT
ATOM      1  O   HOH     1      -2.378   0.476 127.734  0.00  0.00    +0.000 OA
ENDROOT
TORSDOF 0
REMARK  Name = ../refined-set-2016/4rhx/4rhx_pocket.pdb
REMARK  230 active torsions:
REMARK  status: ('A' for Active; 'I' for Inactive)
REMARK    1  A    between atoms: _1  and  _3
REMARK    2  A    between atoms: _3  and  _4
REMARK    3  A    between atoms: _3  and  _6
REMARK    4  A    between atoms: _6  and  _7
REMARK    5  A    between atoms: _10  and  _12
REMARK    6  A    between atoms: _12  and  _13
REMARK    7  A    between atoms: _12  and  _15
REMARK    8  A    between atoms: _18  and  _20
REMARK    9  A    between atoms: _20  and  _21
REMARK   10  A    between atoms: _20  and  _23
REMARK   11  A    between atoms: _23  and  _24
REMARK   12  A    between atoms: _27  and  _29
REMARK   13  A    between atoms: _29  and  _30
REMARK   14  A    between atoms: _29  and  _32
REMARK   15  A    between atoms: _32  and  _33
REMARK   16  A    between atoms: _33  and  _34
REMARK   17  A    between atoms: _34  and  _35
REMARK   18  A    between atoms: _35  and  _36
REMARK   19  A    between atoms: _40  and  _42
REMARK   20  A    between atoms: _42  and  _43
REMARK   21  A    between atoms: _45  and  _47
REMARK   22  A    between atoms: _47  and  _48
REMARK   23  A    between atoms: _51  and  _53
REMARK   24  A    between atoms: _53  and  _54
REMARK   25  A    between atoms: _53  and  _56
REMARK   26  A    between atoms: _59  and  _61
REMARK   27  A    between atoms: _61  and  _62
REMARK   28  A    between atoms: _61  and  _64
REMARK   29  A    between atoms: _64  and  _65
REMARK   30  A    between atoms: _65  and  _66
REMARK   31  A    between atoms: _68  and  _70
REMARK   32  A    between atoms: _70  and  _71
REMARK   33  A    between atoms: _74  and  _76
REMARK   34  A    between atoms: _76  and  _77
REMARK   35  A    between atoms: _76  and  _79
REMARK   36  A    between atoms: _82  and  _84
REMARK   37  A    between atoms: _84  and  _85
REMARK   38  A    between atoms: _84  and  _87
REMARK   39  A    between atoms: _87  and  _88
REMARK   40  A    between atoms: _90  and  _92
REMARK   41  A    between atoms: _92  and  _93
REMARK   42  A    between atoms: _92  and  _95
REMARK   43  A    between atoms: _95  and  _96
REMARK   44  A    between atoms: _98  and  _100
REMARK   45  A    between atoms: _100  and  _101
REMARK   46  A    between atoms: _100  and  _103
REMARK   47  A    between atoms: _103  and  _104
REMARK   48  A    between atoms: _109  and  _110
REMARK   49  A    between atoms: _112  and  _114
REMARK   50  A    between atoms: _114  and  _115
REMARK   51  A    between atoms: _117  and  _119
REMARK   52  A    between atoms: _119  and  _120
REMARK   53  A    between atoms: _119  and  _122
REMARK   54  A    between atoms: _125  and  _127
REMARK   55  A    between atoms: _127  and  _128
REMARK   56  A    between atoms: _127  and  _130
REMARK   57  A    between atoms: _130  and  _131
REMARK   58  A    between atoms: _131  and  _132
REMARK   59  A    between atoms: _132  and  _133
REMARK   60  A    between atoms: _142  and  _144
REMARK   61  A    between atoms: _144  and  _145
REMARK   62  A    between atoms: _144  and  _147
REMARK   63  A    between atoms: _147  and  _148
REMARK   64  A    between atoms: _151  and  _153
REMARK   65  A    between atoms: _153  and  _154
REMARK   66  A    between atoms: _153  and  _156
REMARK   67  A    between atoms: _156  and  _157
REMARK   68  A    between atoms: _157  and  _158
REMARK   69  A    between atoms: _161  and  _163
REMARK   70  A    between atoms: _163  and  _164
REMARK   71  A    between atoms: _163  and  _166
REMARK   72  A    between atoms: _166  and  _167
REMARK   73  A    between atoms: _170  and  _172
REMARK   74  A    between atoms: _172  and  _173
REMARK   75  A    between atoms: _172  and  _175
REMARK   76  A    between atoms: _178  and  _180
REMARK   77  A    between atoms: _180  and  _181
REMARK   78  A    between atoms: _180  and  _183
REMARK   79  A    between atoms: _186  and  _188
REMARK   80  A    between atoms: _188  and  _189
REMARK   81  A    between atoms: _188  and  _191
REMARK   82  A    between atoms: _191  and  _192
REMARK   83  A    between atoms: _195  and  _197
REMARK   84  A    between atoms: _197  and  _198
REMARK   85  A    between atoms: _197  and  _200
REMARK   86  A    between atoms: _200  and  _201
REMARK   87  A    between atoms: _203  and  _205
REMARK   88  A    between atoms: _205  and  _206
REMARK   89  A    between atoms: _208  and  _210
REMARK   90  A    between atoms: _210  and  _211
REMARK   91  A    between atoms: _210  and  _213
REMARK   92  A    between atoms: _213  and  _214
REMARK   93  A    between atoms: _217  and  _219
REMARK   94  A    between atoms: _219  and  _220
REMARK   95  A    between atoms: _219  and  _222
REMARK   96  A    between atoms: _222  and  _223
REMARK   97  A    between atoms: _226  and  _228
REMARK   98  A    between atoms: _228  and  _229
REMARK   99  A    between atoms: _228  and  _231
REMARK  100  A    between atoms: _231  and  _232
REMARK  101  A    between atoms: _235  and  _237
REMARK  102  A    between atoms: _237  and  _238
REMARK  103  A    between atoms: _237  and  _240
REMARK  104  A    between atoms: _240  and  _241
REMARK  105  A    between atoms: _243  and  _245
REMARK  106  A    between atoms: _245  and  _246
REMARK  107  A    between atoms: _245  and  _248
REMARK  108  A    between atoms: _248  and  _249
REMARK  109  A    between atoms: _259  and  _261
REMARK  110  A    between atoms: _261  and  _262
REMARK  111  A    between atoms: _261  and  _264
REMARK  112  A    between atoms: _264  and  _265
REMARK  113  A    between atoms: _268  and  _270
REMARK  114  A    between atoms: _270  and  _271
REMARK  115  A    between atoms: _270  and  _273
REMARK  116  A    between atoms: _273  and  _274
REMARK  117  A    between atoms: _277  and  _279
REMARK  118  A    between atoms: _279  and  _280
REMARK  119  A    between atoms: _279  and  _282
REMARK  120  A    between atoms: _282  and  _283
REMARK  121  A    between atoms: _283  and  _284
REMARK  122  A    between atoms: _284  and  _285
REMARK  123  A    between atoms: _285  and  _286
REMARK  124  A    between atoms: _290  and  _292
REMARK  125  A    between atoms: _292  and  _293
REMARK  126  A    between atoms: _292  and  _295
REMARK  127  A    between atoms: _295  and  _296
REMARK  128  A    between atoms: _299  and  _301
REMARK  129  A    between atoms: _301  and  _302
REMARK  130  A    between atoms: _305  and  _307
REMARK  131  A    between atoms: _307  and  _308
REMARK  132  A    between atoms: _311  and  _313
REMARK  133  A    between atoms: _313  and  _314
REMARK  134  A    between atoms: _313  and  _316
REMARK  135  A    between atoms: _316  and  _317
REMARK  136  A    between atoms: _321  and  _322
REMARK  137  A    between atoms: _327  and  _329
REMARK  138  A    between atoms: _329  and  _330
REMARK  139  A    between atoms: _329  and  _332
REMARK  140  A    between atoms: _332  and  _333
REMARK  141  A    between atoms: _338  and  _340
REMARK  142  A    between atoms: _340  and  _341
REMARK  143  A    between atoms: _340  and  _343
REMARK  144  A    between atoms: _343  and  _344
REMARK  145  A    between atoms: _347  and  _349
REMARK  146  A    between atoms: _349  and  _350
REMARK  147  A    between atoms: _349  and  _352
REMARK  148  A    between atoms: _352  and  _353
REMARK  149  A    between atoms: _359  and  _361
REMARK  150  A    between atoms: _361  and  _362
REMARK  151  A    between atoms: _361  and  _364
REMARK  152  A    between atoms: _367  and  _369
REMARK  153  A    between atoms: _369  and  _370
REMARK  154  A    between atoms: _369  and  _372
REMARK  155  A    between atoms: _375  and  _377
REMARK  156  A    between atoms: _377  and  _378
REMARK  157  A    between atoms: _380  and  _382
REMARK  158  A    between atoms: _382  and  _383
REMARK  159  A    between atoms: _385  and  _387
REMARK  160  A    between atoms: _387  and  _388
REMARK  161  A    between atoms: _387  and  _390
REMARK  162  A    between atoms: _390  and  _391
REMARK  163  A    between atoms: _394  and  _396
REMARK  164  A    between atoms: _396  and  _397
REMARK  165  A    between atoms: _396  and  _399
REMARK  166  A    between atoms: _399  and  _400
REMARK  167  A    between atoms: _400  and  _402
REMARK  168  A    between atoms: _402  and  MG_565
REMARK  169  A    between atoms: _403  and  _405
REMARK  170  A    between atoms: _405  and  _406
REMARK  171  A    between atoms: _405  and  _408
REMARK  172  A    between atoms: _408  and  _409
REMARK  173  A    between atoms: _414  and  _415
REMARK  174  A    between atoms: _417  and  _419
REMARK  175  A    between atoms: _419  and  _420
REMARK  176  A    between atoms: _419  and  _422
REMARK  177  A    between atoms: _422  and  _423
REMARK  178  A    between atoms: _426  and  _428
REMARK  179  A    between atoms: _428  and  _429
REMARK  180  A    between atoms: _428  and  _431
REMARK  181  A    between atoms: _431  and  _432
REMARK  182  A    between atoms: _432  and  _433
REMARK  183  A    between atoms: _436  and  _438
REMARK  184  A    between atoms: _438  and  _439
REMARK  185  A    between atoms: _438  and  _441
REMARK  186  A    between atoms: _441  and  _442
REMARK  187  A    between atoms: _442  and  _443
REMARK  188  A    between atoms: _443  and  _444
REMARK  189  A    between atoms: _453  and  _455
REMARK  190  A    between atoms: _455  and  _456
REMARK  191  A    between atoms: _455  and  _458
REMARK  192  A    between atoms: _458  and  _459
REMARK  193  A    between atoms: _464  and  _465
REMARK  194  A    between atoms: _467  and  _469
REMARK  195  A    between atoms: _469  and  _470
REMARK  196  A    between atoms: _469  and  _472
REMARK  197  A    between atoms: _472  and  _473
REMARK  198  A    between atoms: _473  and  _474
REMARK  199  A    between atoms: _474  and  _475
REMARK  200  A    between atoms: _484  and  _486
REMARK  201  A    between atoms: _486  and  _487
REMARK  202  A    between atoms: _486  and  _489
REMARK  203  A    between atoms: _489  and  _490
REMARK  204  A    between atoms: _493  and  _495
REMARK  205  A    between atoms: _495  and  _496
REMARK  206  A    between atoms: _498  and  _500
REMARK  207  A    between atoms: _500  and  _501
REMARK  208  A    between atoms: _500  and  _503
REMARK  209  A    between atoms: _503  and  _504
REMARK  210  A    between atoms: _507  and  _509
REMARK  211  A    between atoms: _509  and  _510
REMARK  212  A    between atoms: _509  and  _512
REMARK  213  A    between atoms: _512  and  _513
REMARK  214  A    between atoms: _518  and  _519
REMARK  215  A    between atoms: _521  and  _523
REMARK  216  A    between atoms: _523  and  _524
REMARK  217  A    between atoms: _523  and  _526
REMARK  218  A    between atoms: _526  and  _527
REMARK  219  A    between atoms: _533  and  _535
REMARK  220  A    between atoms: _535  and  _536
REMARK  221  A    between atoms: _535  and  _538
REMARK  222  A    between atoms: _538  and  _539
REMARK  223  A    between atoms: _545  and  _547
REMARK  224  A    between atoms: _547  and  _548
REMARK  225  A    between atoms: _547  and  _550
REMARK  226  A    between atoms: _550  and  _551
REMARK  227  A    between atoms: _554  and  _556
REMARK  228  A    between atoms: _556  and  _557
REMARK  229  A    between atoms: _556  and  _559
REMARK  230  A    between atoms: _559  and  _560
REMARK                            x       y       z     vdW  Elec       q    Type
REMARK                         _______ _______ _______ _____ _____    ______ ____
ROOT
ATOM      1  O   HOH     1      -3.045  19.894 128.376  0.00  0.00    +0.000 OA
ENDROOT
TORSDOF 0
REMARK  Name = ../refined-set-2016/4rhx/4rhx_pocket.pdb
REMARK  230 active torsions:
REMARK  status: ('A' for Active; 'I' for Inactive)
REMARK    1  A    between atoms: _1  and  _3
REMARK    2  A    between atoms: _3  and  _4
REMARK    3  A    between atoms: _3  and  _6
REMARK    4  A    between atoms: _6  and  _7
REMARK    5  A    between atoms: _10  and  _12
REMARK    6  A    between atoms: _12  and  _13
REMARK    7  A    between atoms: _12  and  _15
REMARK    8  A    between atoms: _18  and  _20
REMARK    9  A    between atoms: _20  and  _21
REMARK   10  A    between atoms: _20  and  _23
REMARK   11  A    between atoms: _23  and  _24
REMARK   12  A    between atoms: _27  and  _29
REMARK   13  A    between atoms: _29  and  _30
REMARK   14  A    between atoms: _29  and  _32
REMARK   15  A    between atoms: _32  and  _33
REMARK   16  A    between atoms: _33  and  _34
REMARK   17  A    between atoms: _34  and  _35
REMARK   18  A    between atoms: _35  and  _36
REMARK   19  A    between atoms: _40  and  _42
REMARK   20  A    between atoms: _42  and  _43
REMARK   21  A    between atoms: _45  and  _47
REMARK   22  A    between atoms: _47  and  _48
REMARK   23  A    between atoms: _51  and  _53
REMARK   24  A    between atoms: _53  and  _54
REMARK   25  A    between atoms: _53  and  _56
REMARK   26  A    between atoms: _59  and  _61
REMARK   27  A    between atoms: _61  and  _62
REMARK   28  A    between atoms: _61  and  _64
REMARK   29  A    between atoms: _64  and  _65
REMARK   30  A    between atoms: _65  and  _66
REMARK   31  A    between atoms: _68  and  _70
REMARK   32  A    between atoms: _70  and  _71
REMARK   33  A    between atoms: _74  and  _76
REMARK   34  A    between atoms: _76  and  _77
REMARK   35  A    between atoms: _76  and  _79
REMARK   36  A    between atoms: _82  and  _84
REMARK   37  A    between atoms: _84  and  _85
REMARK   38  A    between atoms: _84  and  _87
REMARK   39  A    between atoms: _87  and  _88
REMARK   40  A    between atoms: _90  and  _92
REMARK   41  A    between atoms: _92  and  _93
REMARK   42  A    between atoms: _92  and  _95
REMARK   43  A    between atoms: _95  and  _96
REMARK   44  A    between atoms: _98  and  _100
REMARK   45  A    between atoms: _100  and  _101
REMARK   46  A    between atoms: _100  and  _103
REMARK   47  A    between atoms: _103  and  _104
REMARK   48  A    between atoms: _109  and  _110
REMARK   49  A    between atoms: _112  and  _114
REMARK   50  A    between atoms: _114  and  _115
REMARK   51  A    between atoms: _117  and  _119
REMARK   52  A    between atoms: _119  and  _120
REMARK   53  A    between atoms: _119  and  _122
REMARK   54  A    between atoms: _125  and  _127
REMARK   55  A    between atoms: _127  and  _128
REMARK   56  A    between atoms: _127  and  _130
REMARK   57  A    between atoms: _130  and  _131
REMARK   58  A    between atoms: _131  and  _132
REMARK   59  A    between atoms: _132  and  _133
REMARK   60  A    between atoms: _142  and  _144
REMARK   61  A    between atoms: _144  and  _145
REMARK   62  A    between atoms: _144  and  _147
REMARK   63  A    between atoms: _147  and  _148
REMARK   64  A    between atoms: _151  and  _153
REMARK   65  A    between atoms: _153  and  _154
REMARK   66  A    between atoms: _153  and  _156
REMARK   67  A    between atoms: _156  and  _157
REMARK   68  A    between atoms: _157  and  _158
REMARK   69  A    between atoms: _161  and  _163
REMARK   70  A    between atoms: _163  and  _164
REMARK   71  A    between atoms: _163  and  _166
REMARK   72  A    between atoms: _166  and  _167
REMARK   73  A    between atoms: _170  and  _172
REMARK   74  A    between atoms: _172  and  _173
REMARK   75  A    between atoms: _172  and  _175
REMARK   76  A    between atoms: _178  and  _180
REMARK   77  A    between atoms: _180  and  _181
REMARK   78  A    between atoms: _180  and  _183
REMARK   79  A    between atoms: _186  and  _188
REMARK   80  A    between atoms: _188  and  _189
REMARK   81  A    between atoms: _188  and  _191
REMARK   82  A    between atoms: _191  and  _192
REMARK   83  A    between atoms: _195  and  _197
REMARK   84  A    between atoms: _197  and  _198
REMARK   85  A    between atoms: _197  and  _200
REMARK   86  A    between atoms: _200  and  _201
REMARK   87  A    between atoms: _203  and  _205
REMARK   88  A    between atoms: _205  and  _206
REMARK   89  A    between atoms: _208  and  _210
REMARK   90  A    between atoms: _210  and  _211
REMARK   91  A    between atoms: _210  and  _213
REMARK   92  A    between atoms: _213  and  _214
REMARK   93  A    between atoms: _217  and  _219
REMARK   94  A    between atoms: _219  and  _220
REMARK   95  A    between atoms: _219  and  _222
REMARK   96  A    between atoms: _222  and  _223
REMARK   97  A    between atoms: _226  and  _228
REMARK   98  A    between atoms: _228  and  _229
REMARK   99  A    between atoms: _228  and  _231
REMARK  100  A    between atoms: _231  and  _232
REMARK  101  A    between atoms: _235  and  _237
REMARK  102  A    between atoms: _237  and  _238
REMARK  103  A    between atoms: _237  and  _240
REMARK  104  A    between atoms: _240  and  _241
REMARK  105  A    between atoms: _243  and  _245
REMARK  106  A    between atoms: _245  and  _246
REMARK  107  A    between atoms: _245  and  _248
REMARK  108  A    between atoms: _248  and  _249
REMARK  109  A    between atoms: _259  and  _261
REMARK  110  A    between atoms: _261  and  _262
REMARK  111  A    between atoms: _261  and  _264
REMARK  112  A    between atoms: _264  and  _265
REMARK  113  A    between atoms: _268  and  _270
REMARK  114  A    between atoms: _270  and  _271
REMARK  115  A    between atoms: _270  and  _273
REMARK  116  A    between atoms: _273  and  _274
REMARK  117  A    between atoms: _277  and  _279
REMARK  118  A    between atoms: _279  and  _280
REMARK  119  A    between atoms: _279  and  _282
REMARK  120  A    between atoms: _282  and  _283
REMARK  121  A    between atoms: _283  and  _284
REMARK  122  A    between atoms: _284  and  _285
REMARK  123  A    between atoms: _285  and  _286
REMARK  124  A    between atoms: _290  and  _292
REMARK  125  A    between atoms: _292  and  _293
REMARK  126  A    between atoms: _292  and  _295
REMARK  127  A    between atoms: _295  and  _296
REMARK  128  A    between atoms: _299  and  _301
REMARK  129  A    between atoms: _301  and  _302
REMARK  130  A    between atoms: _305  and  _307
REMARK  131  A    between atoms: _307  and  _308
REMARK  132  A    between atoms: _311  and  _313
REMARK  133  A    between atoms: _313  and  _314
REMARK  134  A    between atoms: _313  and  _316
REMARK  135  A    between atoms: _316  and  _317
REMARK  136  A    between atoms: _321  and  _322
REMARK  137  A    between atoms: _327  and  _329
REMARK  138  A    between atoms: _329  and  _330
REMARK  139  A    between atoms: _329  and  _332
REMARK  140  A    between atoms: _332  and  _333
REMARK  141  A    between atoms: _338  and  _340
REMARK  142  A    between atoms: _340  and  _341
REMARK  143  A    between atoms: _340  and  _343
REMARK  144  A    between atoms: _343  and  _344
REMARK  145  A    between atoms: _347  and  _349
REMARK  146  A    between atoms: _349  and  _350
REMARK  147  A    between atoms: _349  and  _352
REMARK  148  A    between atoms: _352  and  _353
REMARK  149  A    between atoms: _359  and  _361
REMARK  150  A    between atoms: _361  and  _362
REMARK  151  A    between atoms: _361  and  _364
REMARK  152  A    between atoms: _367  and  _369
REMARK  153  A    between atoms: _369  and  _370
REMARK  154  A    between atoms: _369  and  _372
REMARK  155  A    between atoms: _375  and  _377
REMARK  156  A    between atoms: _377  and  _378
REMARK  157  A    between atoms: _380  and  _382
REMARK  158  A    between atoms: _382  and  _383
REMARK  159  A    between atoms: _385  and  _387
REMARK  160  A    between atoms: _387  and  _388
REMARK  161  A    between atoms: _387  and  _390
REMARK  162  A    between atoms: _390  and  _391
REMARK  163  A    between atoms: _394  and  _396
REMARK  164  A    between atoms: _396  and  _397
REMARK  165  A    between atoms: _396  and  _399
REMARK  166  A    between atoms: _399  and  _400
REMARK  167  A    between atoms: _400  and  _402
REMARK  168  A    between atoms: _402  and  MG_565
REMARK  169  A    between atoms: _403  and  _405
REMARK  170  A    between atoms: _405  and  _406
REMARK  171  A    between atoms: _405  and  _408
REMARK  172  A    between atoms: _408  and  _409
REMARK  173  A    between atoms: _414  and  _415
REMARK  174  A    between atoms: _417  and  _419
REMARK  175  A    between atoms: _419  and  _420
REMARK  176  A    between atoms: _419  and  _422
REMARK  177  A    between atoms: _422  and  _423
REMARK  178  A    between atoms: _426  and  _428
REMARK  179  A    between atoms: _428  and  _429
REMARK  180  A    between atoms: _428  and  _431
REMARK  181  A    between atoms: _431  and  _432
REMARK  182  A    between atoms: _432  and  _433
REMARK  183  A    between atoms: _436  and  _438
REMARK  184  A    between atoms: _438  and  _439
REMARK  185  A    between atoms: _438  and  _441
REMARK  186  A    between atoms: _441  and  _442
REMARK  187  A    between atoms: _442  and  _443
REMARK  188  A    between atoms: _443  and  _444
REMARK  189  A    between atoms: _453  and  _455
REMARK  190  A    between atoms: _455  and  _456
REMARK  191  A    between atoms: _455  and  _458
REMARK  192  A    between atoms: _458  and  _459
REMARK  193  A    between atoms: _464  and  _465
REMARK  194  A    between atoms: _467  and  _469
REMARK  195  A    between atoms: _469  and  _470
REMARK  196  A    between atoms: _469  and  _472
REMARK  197  A    between atoms: _472  and  _473
REMARK  198  A    between atoms: _473  and  _474
REMARK  199  A    between atoms: _474  and  _475
REMARK  200  A    between atoms: _484  and  _486
REMARK  201  A    between atoms: _486  and  _487
REMARK  202  A    between atoms: _486  and  _489
REMARK  203  A    between atoms: _489  and  _490
REMARK  204  A    between atoms: _493  and  _495
REMARK  205  A    between atoms: _495  and  _496
REMARK  206  A    between atoms: _498  and  _500
REMARK  207  A    between atoms: _500  and  _501
REMARK  208  A    between atoms: _500  and  _503
REMARK  209  A    between atoms: _503  and  _504
REMARK  210  A    between atoms: _507  and  _509
REMARK  211  A    between atoms: _509  and  _510
REMARK  212  A    between atoms: _509  and  _512
REMARK  213  A    between atoms: _512  and  _513
REMARK  214  A    between atoms: _518  and  _519
REMARK  215  A    between atoms: _521  and  _523
REMARK  216  A    between atoms: _523  and  _524
REMARK  217  A    between atoms: _523  and  _526
REMARK  218  A    between atoms: _526  and  _527
REMARK  219  A    between atoms: _533  and  _535
REMARK  220  A    between atoms: _535  and  _536
REMARK  221  A    between atoms: _535  and  _538
REMARK  222  A    between atoms: _538  and  _539
REMARK  223  A    between atoms: _545  and  _547
REMARK  224  A    between atoms: _547  and  _548
REMARK  225  A    between atoms: _547  and  _550
REMARK  226  A    between atoms: _550  and  _551
REMARK  227  A    between atoms: _554  and  _556
REMARK  228  A    between atoms: _556  and  _557
REMARK  229  A    between atoms: _556  and  _559
REMARK  230  A    between atoms: _559  and  _560
REMARK                            x       y       z     vdW  Elec       q    Type
REMARK                         _______ _______ _______ _____ _____    ______ ____
ROOT
ATOM      1  O   HOH     1      -3.405  22.384 125.483  0.00  0.00    +0.000 OA
ENDROOT
TORSDOF 0
REMARK  Name = ../refined-set-2016/4rhx/4rhx_pocket.pdb
REMARK  230 active torsions:
REMARK  status: ('A' for Active; 'I' for Inactive)
REMARK    1  A    between atoms: _1  and  _3
REMARK    2  A    between atoms: _3  and  _4
REMARK    3  A    between atoms: _3  and  _6
REMARK    4  A    between atoms: _6  and  _7
REMARK    5  A    between atoms: _10  and  _12
REMARK    6  A    between atoms: _12  and  _13
REMARK    7  A    between atoms: _12  and  _15
REMARK    8  A    between atoms: _18  and  _20
REMARK    9  A    between atoms: _20  and  _21
REMARK   10  A    between atoms: _20  and  _23
REMARK   11  A    between atoms: _23  and  _24
REMARK   12  A    between atoms: _27  and  _29
REMARK   13  A    between atoms: _29  and  _30
REMARK   14  A    between atoms: _29  and  _32
REMARK   15  A    between atoms: _32  and  _33
REMARK   16  A    between atoms: _33  and  _34
REMARK   17  A    between atoms: _34  and  _35
REMARK   18  A    between atoms: _35  and  _36
REMARK   19  A    between atoms: _40  and  _42
REMARK   20  A    between atoms: _42  and  _43
REMARK   21  A    between atoms: _45  and  _47
REMARK   22  A    between atoms: _47  and  _48
REMARK   23  A    between atoms: _51  and  _53
REMARK   24  A    between atoms: _53  and  _54
REMARK   25  A    between atoms: _53  and  _56
REMARK   26  A    between atoms: _59  and  _61
REMARK   27  A    between atoms: _61  and  _62
REMARK   28  A    between atoms: _61  and  _64
REMARK   29  A    between atoms: _64  and  _65
REMARK   30  A    between atoms: _65  and  _66
REMARK   31  A    between atoms: _68  and  _70
REMARK   32  A    between atoms: _70  and  _71
REMARK   33  A    between atoms: _74  and  _76
REMARK   34  A    between atoms: _76  and  _77
REMARK   35  A    between atoms: _76  and  _79
REMARK   36  A    between atoms: _82  and  _84
REMARK   37  A    between atoms: _84  and  _85
REMARK   38  A    between atoms: _84  and  _87
REMARK   39  A    between atoms: _87  and  _88
REMARK   40  A    between atoms: _90  and  _92
REMARK   41  A    between atoms: _92  and  _93
REMARK   42  A    between atoms: _92  and  _95
REMARK   43  A    between atoms: _95  and  _96
REMARK   44  A    between atoms: _98  and  _100
REMARK   45  A    between atoms: _100  and  _101
REMARK   46  A    between atoms: _100  and  _103
REMARK   47  A    between atoms: _103  and  _104
REMARK   48  A    between atoms: _109  and  _110
REMARK   49  A    between atoms: _112  and  _114
REMARK   50  A    between atoms: _114  and  _115
REMARK   51  A    between atoms: _117  and  _119
REMARK   52  A    between atoms: _119  and  _120
REMARK   53  A    between atoms: _119  and  _122
REMARK   54  A    between atoms: _125  and  _127
REMARK   55  A    between atoms: _127  and  _128
REMARK   56  A    between atoms: _127  and  _130
REMARK   57  A    between atoms: _130  and  _131
REMARK   58  A    between atoms: _131  and  _132
REMARK   59  A    between atoms: _132  and  _133
REMARK   60  A    between atoms: _142  and  _144
REMARK   61  A    between atoms: _144  and  _145
REMARK   62  A    between atoms: _144  and  _147
REMARK   63  A    between atoms: _147  and  _148
REMARK   64  A    between atoms: _151  and  _153
REMARK   65  A    between atoms: _153  and  _154
REMARK   66  A    between atoms: _153  and  _156
REMARK   67  A    between atoms: _156  and  _157
REMARK   68  A    between atoms: _157  and  _158
REMARK   69  A    between atoms: _161  and  _163
REMARK   70  A    between atoms: _163  and  _164
REMARK   71  A    between atoms: _163  and  _166
REMARK   72  A    between atoms: _166  and  _167
REMARK   73  A    between atoms: _170  and  _172
REMARK   74  A    between atoms: _172  and  _173
REMARK   75  A    between atoms: _172  and  _175
REMARK   76  A    between atoms: _178  and  _180
REMARK   77  A    between atoms: _180  and  _181
REMARK   78  A    between atoms: _180  and  _183
REMARK   79  A    between atoms: _186  and  _188
REMARK   80  A    between atoms: _188  and  _189
REMARK   81  A    between atoms: _188  and  _191
REMARK   82  A    between atoms: _191  and  _192
REMARK   83  A    between atoms: _195  and  _197
REMARK   84  A    between atoms: _197  and  _198
REMARK   85  A    between atoms: _197  and  _200
REMARK   86  A    between atoms: _200  and  _201
REMARK   87  A    between atoms: _203  and  _205
REMARK   88  A    between atoms: _205  and  _206
REMARK   89  A    between atoms: _208  and  _210
REMARK   90  A    between atoms: _210  and  _211
REMARK   91  A    between atoms: _210  and  _213
REMARK   92  A    between atoms: _213  and  _214
REMARK   93  A    between atoms: _217  and  _219
REMARK   94  A    between atoms: _219  and  _220
REMARK   95  A    between atoms: _219  and  _222
REMARK   96  A    between atoms: _222  and  _223
REMARK   97  A    between atoms: _226  and  _228
REMARK   98  A    between atoms: _228  and  _229
REMARK   99  A    between atoms: _228  and  _231
REMARK  100  A    between atoms: _231  and  _232
REMARK  101  A    between atoms: _235  and  _237
REMARK  102  A    between atoms: _237  and  _238
REMARK  103  A    between atoms: _237  and  _240
REMARK  104  A    between atoms: _240  and  _241
REMARK  105  A    between atoms: _243  and  _245
REMARK  106  A    between atoms: _245  and  _246
REMARK  107  A    between atoms: _245  and  _248
REMARK  108  A    between atoms: _248  and  _249
REMARK  109  A    between atoms: _259  and  _261
REMARK  110  A    between atoms: _261  and  _262
REMARK  111  A    between atoms: _261  and  _264
REMARK  112  A    between atoms: _264  and  _265
REMARK  113  A    between atoms: _268  and  _270
REMARK  114  A    between atoms: _270  and  _271
REMARK  115  A    between atoms: _270  and  _273
REMARK  116  A    between atoms: _273  and  _274
REMARK  117  A    between atoms: _277  and  _279
REMARK  118  A    between atoms: _279  and  _280
REMARK  119  A    between atoms: _279  and  _282
REMARK  120  A    between atoms: _282  and  _283
REMARK  121  A    between atoms: _283  and  _284
REMARK  122  A    between atoms: _284  and  _285
REMARK  123  A    between atoms: _285  and  _286
REMARK  124  A    between atoms: _290  and  _292
REMARK  125  A    between atoms: _292  and  _293
REMARK  126  A    between atoms: _292  and  _295
REMARK  127  A    between atoms: _295  and  _296
REMARK  128  A    between atoms: _299  and  _301
REMARK  129  A    between atoms: _301  and  _302
REMARK  130  A    between atoms: _305  and  _307
REMARK  131  A    between atoms: _307  and  _308
REMARK  132  A    between atoms: _311  and  _313
REMARK  133  A    between atoms: _313  and  _314
REMARK  134  A    between atoms: _313  and  _316
REMARK  135  A    between atoms: _316  and  _317
REMARK  136  A    between atoms: _321  and  _322
REMARK  137  A    between atoms: _327  and  _329
REMARK  138  A    between atoms: _329  and  _330
REMARK  139  A    between atoms: _329  and  _332
REMARK  140  A    between atoms: _332  and  _333
REMARK  141  A    between atoms: _338  and  _340
REMARK  142  A    between atoms: _340  and  _341
REMARK  143  A    between atoms: _340  and  _343
REMARK  144  A    between atoms: _343  and  _344
REMARK  145  A    between atoms: _347  and  _349
REMARK  146  A    between atoms: _349  and  _350
REMARK  147  A    between atoms: _349  and  _352
REMARK  148  A    between atoms: _352  and  _353
REMARK  149  A    between atoms: _359  and  _361
REMARK  150  A    between atoms: _361  and  _362
REMARK  151  A    between atoms: _361  and  _364
REMARK  152  A    between atoms: _367  and  _369
REMARK  153  A    between atoms: _369  and  _370
REMARK  154  A    between atoms: _369  and  _372
REMARK  155  A    between atoms: _375  and  _377
REMARK  156  A    between atoms: _377  and  _378
REMARK  157  A    between atoms: _380  and  _382
REMARK  158  A    between atoms: _382  and  _383
REMARK  159  A    between atoms: _385  and  _387
REMARK  160  A    between atoms: _387  and  _388
REMARK  161  A    between atoms: _387  and  _390
REMARK  162  A    between atoms: _390  and  _391
REMARK  163  A    between atoms: _394  and  _396
REMARK  164  A    between atoms: _396  and  _397
REMARK  165  A    between atoms: _396  and  _399
REMARK  166  A    between atoms: _399  and  _400
REMARK  167  A    between atoms: _400  and  _402
REMARK  168  A    between atoms: _402  and  MG_565
REMARK  169  A    between atoms: _403  and  _405
REMARK  170  A    between atoms: _405  and  _406
REMARK  171  A    between atoms: _405  and  _408
REMARK  172  A    between atoms: _408  and  _409
REMARK  173  A    between atoms: _414  and  _415
REMARK  174  A    between atoms: _417  and  _419
REMARK  175  A    between atoms: _419  and  _420
REMARK  176  A    between atoms: _419  and  _422
REMARK  177  A    between atoms: _422  and  _423
REMARK  178  A    between atoms: _426  and  _428
REMARK  179  A    between atoms: _428  and  _429
REMARK  180  A    between atoms: _428  and  _431
REMARK  181  A    between atoms: _431  and  _432
REMARK  182  A    between atoms: _432  and  _433
REMARK  183  A    between atoms: _436  and  _438
REMARK  184  A    between atoms: _438  and  _439
REMARK  185  A    between atoms: _438  and  _441
REMARK  186  A    between atoms: _441  and  _442
REMARK  187  A    between atoms: _442  and  _443
REMARK  188  A    between atoms: _443  and  _444
REMARK  189  A    between atoms: _453  and  _455
REMARK  190  A    between atoms: _455  and  _456
REMARK  191  A    between atoms: _455  and  _458
REMARK  192  A    between atoms: _458  and  _459
REMARK  193  A    between atoms: _464  and  _465
REMARK  194  A    between atoms: _467  and  _469
REMARK  195  A    between atoms: _469  and  _470
REMARK  196  A    between atoms: _469  and  _472
REMARK  197  A    between atoms: _472  and  _473
REMARK  198  A    between atoms: _473  and  _474
REMARK  199  A    between atoms: _474  and  _475
REMARK  200  A    between atoms: _484  and  _486
REMARK  201  A    between atoms: _486  and  _487
REMARK  202  A    between atoms: _486  and  _489
REMARK  203  A    between atoms: _489  and  _490
REMARK  204  A    between atoms: _493  and  _495
REMARK  205  A    between atoms: _495  and  _496
REMARK  206  A    between atoms: _498  and  _500
REMARK  207  A    between atoms: _500  and  _501
REMARK  208  A    between atoms: _500  and  _503
REMARK  209  A    between atoms: _503  and  _504
REMARK  210  A    between atoms: _507  and  _509
REMARK  211  A    between atoms: _509  and  _510
REMARK  212  A    between atoms: _509  and  _512
REMARK  213  A    between atoms: _512  and  _513
REMARK  214  A    between atoms: _518  and  _519
REMARK  215  A    between atoms: _521  and  _523
REMARK  216  A    between atoms: _523  and  _524
REMARK  217  A    between atoms: _523  and  _526
REMARK  218  A    between atoms: _526  and  _527
REMARK  219  A    between atoms: _533  and  _535
REMARK  220  A    between atoms: _535  and  _536
REMARK  221  A    between atoms: _535  and  _538
REMARK  222  A    between atoms: _538  and  _539
REMARK  223  A    between atoms: _545  and  _547
REMARK  224  A    between atoms: _547  and  _548
REMARK  225  A    between atoms: _547  and  _550
REMARK  226  A    between atoms: _550  and  _551
REMARK  227  A    between atoms: _554  and  _556
REMARK  228  A    between atoms: _556  and  _557
REMARK  229  A    between atoms: _556  and  _559
REMARK  230  A    between atoms: _559  and  _560
REMARK                            x       y       z     vdW  Elec       q    Type
REMARK                         _______ _______ _______ _____ _____    ______ ____
ROOT
ATOM      1  O   HOH     1      -2.820  13.319 117.808  0.00  0.00    +0.000 OA
ENDROOT
TORSDOF 0
REMARK  Name = ../refined-set-2016/4rhx/4rhx_pocket.pdb
REMARK  230 active torsions:
REMARK  status: ('A' for Active; 'I' for Inactive)
REMARK    1  A    between atoms: _1  and  _3
REMARK    2  A    between atoms: _3  and  _4
REMARK    3  A    between atoms: _3  and  _6
REMARK    4  A    between atoms: _6  and  _7
REMARK    5  A    between atoms: _10  and  _12
REMARK    6  A    between atoms: _12  and  _13
REMARK    7  A    between atoms: _12  and  _15
REMARK    8  A    between atoms: _18  and  _20
REMARK    9  A    between atoms: _20  and  _21
REMARK   10  A    between atoms: _20  and  _23
REMARK   11  A    between atoms: _23  and  _24
REMARK   12  A    between atoms: _27  and  _29
REMARK   13  A    between atoms: _29  and  _30
REMARK   14  A    between atoms: _29  and  _32
REMARK   15  A    between atoms: _32  and  _33
REMARK   16  A    between atoms: _33  and  _34
REMARK   17  A    between atoms: _34  and  _35
REMARK   18  A    between atoms: _35  and  _36
REMARK   19  A    between atoms: _40  and  _42
REMARK   20  A    between atoms: _42  and  _43
REMARK   21  A    between atoms: _45  and  _47
REMARK   22  A    between atoms: _47  and  _48
REMARK   23  A    between atoms: _51  and  _53
REMARK   24  A    between atoms: _53  and  _54
REMARK   25  A    between atoms: _53  and  _56
REMARK   26  A    between atoms: _59  and  _61
REMARK   27  A    between atoms: _61  and  _62
REMARK   28  A    between atoms: _61  and  _64
REMARK   29  A    between atoms: _64  and  _65
REMARK   30  A    between atoms: _65  and  _66
REMARK   31  A    between atoms: _68  and  _70
REMARK   32  A    between atoms: _70  and  _71
REMARK   33  A    between atoms: _74  and  _76
REMARK   34  A    between atoms: _76  and  _77
REMARK   35  A    between atoms: _76  and  _79
REMARK   36  A    between atoms: _82  and  _84
REMARK   37  A    between atoms: _84  and  _85
REMARK   38  A    between atoms: _84  and  _87
REMARK   39  A    between atoms: _87  and  _88
REMARK   40  A    between atoms: _90  and  _92
REMARK   41  A    between atoms: _92  and  _93
REMARK   42  A    between atoms: _92  and  _95
REMARK   43  A    between atoms: _95  and  _96
REMARK   44  A    between atoms: _98  and  _100
REMARK   45  A    between atoms: _100  and  _101
REMARK   46  A    between atoms: _100  and  _103
REMARK   47  A    between atoms: _103  and  _104
REMARK   48  A    between atoms: _109  and  _110
REMARK   49  A    between atoms: _112  and  _114
REMARK   50  A    between atoms: _114  and  _115
REMARK   51  A    between atoms: _117  and  _119
REMARK   52  A    between atoms: _119  and  _120
REMARK   53  A    between atoms: _119  and  _122
REMARK   54  A    between atoms: _125  and  _127
REMARK   55  A    between atoms: _127  and  _128
REMARK   56  A    between atoms: _127  and  _130
REMARK   57  A    between atoms: _130  and  _131
REMARK   58  A    between atoms: _131  and  _132
REMARK   59  A    between atoms: _132  and  _133
REMARK   60  A    between atoms: _142  and  _144
REMARK   61  A    between atoms: _144  and  _145
REMARK   62  A    between atoms: _144  and  _147
REMARK   63  A    between atoms: _147  and  _148
REMARK   64  A    between atoms: _151  and  _153
REMARK   65  A    between atoms: _153  and  _154
REMARK   66  A    between atoms: _153  and  _156
REMARK   67  A    between atoms: _156  and  _157
REMARK   68  A    between atoms: _157  and  _158
REMARK   69  A    between atoms: _161  and  _163
REMARK   70  A    between atoms: _163  and  _164
REMARK   71  A    between atoms: _163  and  _166
REMARK   72  A    between atoms: _166  and  _167
REMARK   73  A    between atoms: _170  and  _172
REMARK   74  A    between atoms: _172  and  _173
REMARK   75  A    between atoms: _172  and  _175
REMARK   76  A    between atoms: _178  and  _180
REMARK   77  A    between atoms: _180  and  _181
REMARK   78  A    between atoms: _180  and  _183
REMARK   79  A    between atoms: _186  and  _188
REMARK   80  A    between atoms: _188  and  _189
REMARK   81  A    between atoms: _188  and  _191
REMARK   82  A    between atoms: _191  and  _192
REMARK   83  A    between atoms: _195  and  _197
REMARK   84  A    between atoms: _197  and  _198
REMARK   85  A    between atoms: _197  and  _200
REMARK   86  A    between atoms: _200  and  _201
REMARK   87  A    between atoms: _203  and  _205
REMARK   88  A    between atoms: _205  and  _206
REMARK   89  A    between atoms: _208  and  _210
REMARK   90  A    between atoms: _210  and  _211
REMARK   91  A    between atoms: _210  and  _213
REMARK   92  A    between atoms: _213  and  _214
REMARK   93  A    between atoms: _217  and  _219
REMARK   94  A    between atoms: _219  and  _220
REMARK   95  A    between atoms: _219  and  _222
REMARK   96  A    between atoms: _222  and  _223
REMARK   97  A    between atoms: _226  and  _228
REMARK   98  A    between atoms: _228  and  _229
REMARK   99  A    between atoms: _228  and  _231
REMARK  100  A    between atoms: _231  and  _232
REMARK  101  A    between atoms: _235  and  _237
REMARK  102  A    between atoms: _237  and  _238
REMARK  103  A    between atoms: _237  and  _240
REMARK  104  A    between atoms: _240  and  _241
REMARK  105  A    between atoms: _243  and  _245
REMARK  106  A    between atoms: _245  and  _246
REMARK  107  A    between atoms: _245  and  _248
REMARK  108  A    between atoms: _248  and  _249
REMARK  109  A    between atoms: _259  and  _261
REMARK  110  A    between atoms: _261  and  _262
REMARK  111  A    between atoms: _261  and  _264
REMARK  112  A    between atoms: _264  and  _265
REMARK  113  A    between atoms: _268  and  _270
REMARK  114  A    between atoms: _270  and  _271
REMARK  115  A    between atoms: _270  and  _273
REMARK  116  A    between atoms: _273  and  _274
REMARK  117  A    between atoms: _277  and  _279
REMARK  118  A    between atoms: _279  and  _280
REMARK  119  A    between atoms: _279  and  _282
REMARK  120  A    between atoms: _282  and  _283
REMARK  121  A    between atoms: _283  and  _284
REMARK  122  A    between atoms: _284  and  _285
REMARK  123  A    between atoms: _285  and  _286
REMARK  124  A    between atoms: _290  and  _292
REMARK  125  A    between atoms: _292  and  _293
REMARK  126  A    between atoms: _292  and  _295
REMARK  127  A    between atoms: _295  and  _296
REMARK  128  A    between atoms: _299  and  _301
REMARK  129  A    between atoms: _301  and  _302
REMARK  130  A    between atoms: _305  and  _307
REMARK  131  A    between atoms: _307  and  _308
REMARK  132  A    between atoms: _311  and  _313
REMARK  133  A    between atoms: _313  and  _314
REMARK  134  A    between atoms: _313  and  _316
REMARK  135  A    between atoms: _316  and  _317
REMARK  136  A    between atoms: _321  and  _322
REMARK  137  A    between atoms: _327  and  _329
REMARK  138  A    between atoms: _329  and  _330
REMARK  139  A    between atoms: _329  and  _332
REMARK  140  A    between atoms: _332  and  _333
REMARK  141  A    between atoms: _338  and  _340
REMARK  142  A    between atoms: _340  and  _341
REMARK  143  A    between atoms: _340  and  _343
REMARK  144  A    between atoms: _343  and  _344
REMARK  145  A    between atoms: _347  and  _349
REMARK  146  A    between atoms: _349  and  _350
REMARK  147  A    between atoms: _349  and  _352
REMARK  148  A    between atoms: _352  and  _353
REMARK  149  A    between atoms: _359  and  _361
REMARK  150  A    between atoms: _361  and  _362
REMARK  151  A    between atoms: _361  and  _364
REMARK  152  A    between atoms: _367  and  _369
REMARK  153  A    between atoms: _369  and  _370
REMARK  154  A    between atoms: _369  and  _372
REMARK  155  A    between atoms: _375  and  _377
REMARK  156  A    between atoms: _377  and  _378
REMARK  157  A    between atoms: _380  and  _382
REMARK  158  A    between atoms: _382  and  _383
REMARK  159  A    between atoms: _385  and  _387
REMARK  160  A    between atoms: _387  and  _388
REMARK  161  A    between atoms: _387  and  _390
REMARK  162  A    between atoms: _390  and  _391
REMARK  163  A    between atoms: _394  and  _396
REMARK  164  A    between atoms: _396  and  _397
REMARK  165  A    between atoms: _396  and  _399
REMARK  166  A    between atoms: _399  and  _400
REMARK  167  A    between atoms: _400  and  _402
REMARK  168  A    between atoms: _402  and  MG_565
REMARK  169  A    between atoms: _403  and  _405
REMARK  170  A    between atoms: _405  and  _406
REMARK  171  A    between atoms: _405  and  _408
REMARK  172  A    between atoms: _408  and  _409
REMARK  173  A    between atoms: _414  and  _415
REMARK  174  A    between atoms: _417  and  _419
REMARK  175  A    between atoms: _419  and  _420
REMARK  176  A    between atoms: _419  and  _422
REMARK  177  A    between atoms: _422  and  _423
REMARK  178  A    between atoms: _426  and  _428
REMARK  179  A    between atoms: _428  and  _429
REMARK  180  A    between atoms: _428  and  _431
REMARK  181  A    between atoms: _431  and  _432
REMARK  182  A    between atoms: _432  and  _433
REMARK  183  A    between atoms: _436  and  _438
REMARK  184  A    between atoms: _438  and  _439
REMARK  185  A    between atoms: _438  and  _441
REMARK  186  A    between atoms: _441  and  _442
REMARK  187  A    between atoms: _442  and  _443
REMARK  188  A    between atoms: _443  and  _444
REMARK  189  A    between atoms: _453  and  _455
REMARK  190  A    between atoms: _455  and  _456
REMARK  191  A    between atoms: _455  and  _458
REMARK  192  A    between atoms: _458  and  _459
REMARK  193  A    between atoms: _464  and  _465
REMARK  194  A    between atoms: _467  and  _469
REMARK  195  A    between atoms: _469  and  _470
REMARK  196  A    between atoms: _469  and  _472
REMARK  197  A    between atoms: _472  and  _473
REMARK  198  A    between atoms: _473  and  _474
REMARK  199  A    between atoms: _474  and  _475
REMARK  200  A    between atoms: _484  and  _486
REMARK  201  A    between atoms: _486  and  _487
REMARK  202  A    between atoms: _486  and  _489
REMARK  203  A    between atoms: _489  and  _490
REMARK  204  A    between atoms: _493  and  _495
REMARK  205  A    between atoms: _495  and  _496
REMARK  206  A    between atoms: _498  and  _500
REMARK  207  A    between atoms: _500  and  _501
REMARK  208  A    between atoms: _500  and  _503
REMARK  209  A    between atoms: _503  and  _504
REMARK  210  A    between atoms: _507  and  _509
REMARK  211  A    between atoms: _509  and  _510
REMARK  212  A    between atoms: _509  and  _512
REMARK  213  A    between atoms: _512  and  _513
REMARK  214  A    between atoms: _518  and  _519
REMARK  215  A    between atoms: _521  and  _523
REMARK  216  A    between atoms: _523  and  _524
REMARK  217  A    between atoms: _523  and  _526
REMARK  218  A    between atoms: _526  and  _527
REMARK  219  A    between atoms: _533  and  _535
REMARK  220  A    between atoms: _535  and  _536
REMARK  221  A    between atoms: _535  and  _538
REMARK  222  A    between atoms: _538  and  _539
REMARK  223  A    between atoms: _545  and  _547
REMARK  224  A    between atoms: _547  and  _548
REMARK  225  A    between atoms: _547  and  _550
REMARK  226  A    between atoms: _550  and  _551
REMARK  227  A    between atoms: _554  and  _556
REMARK  228  A    between atoms: _556  and  _557
REMARK  229  A    between atoms: _556  and  _559
REMARK  230  A    between atoms: _559  and  _560
REMARK                            x       y       z     vdW  Elec       q    Type
REMARK                         _______ _______ _______ _____ _____    ______ ____
ROOT
ATOM      1  O   HOH     1      -0.636   7.427 118.547  0.00  0.00    +0.000 OA
ENDROOT
TORSDOF 0
REMARK  Name = ../refined-set-2016/4rhx/4rhx_pocket.pdb
REMARK  230 active torsions:
REMARK  status: ('A' for Active; 'I' for Inactive)
REMARK    1  A    between atoms: _1  and  _3
REMARK    2  A    between atoms: _3  and  _4
REMARK    3  A    between atoms: _3  and  _6
REMARK    4  A    between atoms: _6  and  _7
REMARK    5  A    between atoms: _10  and  _12
REMARK    6  A    between atoms: _12  and  _13
REMARK    7  A    between atoms: _12  and  _15
REMARK    8  A    between atoms: _18  and  _20
REMARK    9  A    between atoms: _20  and  _21
REMARK   10  A    between atoms: _20  and  _23
REMARK   11  A    between atoms: _23  and  _24
REMARK   12  A    between atoms: _27  and  _29
REMARK   13  A    between atoms: _29  and  _30
REMARK   14  A    between atoms: _29  and  _32
REMARK   15  A    between atoms: _32  and  _33
REMARK   16  A    between atoms: _33  and  _34
REMARK   17  A    between atoms: _34  and  _35
REMARK   18  A    between atoms: _35  and  _36
REMARK   19  A    between atoms: _40  and  _42
REMARK   20  A    between atoms: _42  and  _43
REMARK   21  A    between atoms: _45  and  _47
REMARK   22  A    between atoms: _47  and  _48
REMARK   23  A    between atoms: _51  and  _53
REMARK   24  A    between atoms: _53  and  _54
REMARK   25  A    between atoms: _53  and  _56
REMARK   26  A    between atoms: _59  and  _61
REMARK   27  A    between atoms: _61  and  _62
REMARK   28  A    between atoms: _61  and  _64
REMARK   29  A    between atoms: _64  and  _65
REMARK   30  A    between atoms: _65  and  _66
REMARK   31  A    between atoms: _68  and  _70
REMARK   32  A    between atoms: _70  and  _71
REMARK   33  A    between atoms: _74  and  _76
REMARK   34  A    between atoms: _76  and  _77
REMARK   35  A    between atoms: _76  and  _79
REMARK   36  A    between atoms: _82  and  _84
REMARK   37  A    between atoms: _84  and  _85
REMARK   38  A    between atoms: _84  and  _87
REMARK   39  A    between atoms: _87  and  _88
REMARK   40  A    between atoms: _90  and  _92
REMARK   41  A    between atoms: _92  and  _93
REMARK   42  A    between atoms: _92  and  _95
REMARK   43  A    between atoms: _95  and  _96
REMARK   44  A    between atoms: _98  and  _100
REMARK   45  A    between atoms: _100  and  _101
REMARK   46  A    between atoms: _100  and  _103
REMARK   47  A    between atoms: _103  and  _104
REMARK   48  A    between atoms: _109  and  _110
REMARK   49  A    between atoms: _112  and  _114
REMARK   50  A    between atoms: _114  and  _115
REMARK   51  A    between atoms: _117  and  _119
REMARK   52  A    between atoms: _119  and  _120
REMARK   53  A    between atoms: _119  and  _122
REMARK   54  A    between atoms: _125  and  _127
REMARK   55  A    between atoms: _127  and  _128
REMARK   56  A    between atoms: _127  and  _130
REMARK   57  A    between atoms: _130  and  _131
REMARK   58  A    between atoms: _131  and  _132
REMARK   59  A    between atoms: _132  and  _133
REMARK   60  A    between atoms: _142  and  _144
REMARK   61  A    between atoms: _144  and  _145
REMARK   62  A    between atoms: _144  and  _147
REMARK   63  A    between atoms: _147  and  _148
REMARK   64  A    between atoms: _151  and  _153
REMARK   65  A    between atoms: _153  and  _154
REMARK   66  A    between atoms: _153  and  _156
REMARK   67  A    between atoms: _156  and  _157
REMARK   68  A    between atoms: _157  and  _158
REMARK   69  A    between atoms: _161  and  _163
REMARK   70  A    between atoms: _163  and  _164
REMARK   71  A    between atoms: _163  and  _166
REMARK   72  A    between atoms: _166  and  _167
REMARK   73  A    between atoms: _170  and  _172
REMARK   74  A    between atoms: _172  and  _173
REMARK   75  A    between atoms: _172  and  _175
REMARK   76  A    between atoms: _178  and  _180
REMARK   77  A    between atoms: _180  and  _181
REMARK   78  A    between atoms: _180  and  _183
REMARK   79  A    between atoms: _186  and  _188
REMARK   80  A    between atoms: _188  and  _189
REMARK   81  A    between atoms: _188  and  _191
REMARK   82  A    between atoms: _191  and  _192
REMARK   83  A    between atoms: _195  and  _197
REMARK   84  A    between atoms: _197  and  _198
REMARK   85  A    between atoms: _197  and  _200
REMARK   86  A    between atoms: _200  and  _201
REMARK   87  A    between atoms: _203  and  _205
REMARK   88  A    between atoms: _205  and  _206
REMARK   89  A    between atoms: _208  and  _210
REMARK   90  A    between atoms: _210  and  _211
REMARK   91  A    between atoms: _210  and  _213
REMARK   92  A    between atoms: _213  and  _214
REMARK   93  A    between atoms: _217  and  _219
REMARK   94  A    between atoms: _219  and  _220
REMARK   95  A    between atoms: _219  and  _222
REMARK   96  A    between atoms: _222  and  _223
REMARK   97  A    between atoms: _226  and  _228
REMARK   98  A    between atoms: _228  and  _229
REMARK   99  A    between atoms: _228  and  _231
REMARK  100  A    between atoms: _231  and  _232
REMARK  101  A    between atoms: _235  and  _237
REMARK  102  A    between atoms: _237  and  _238
REMARK  103  A    between atoms: _237  and  _240
REMARK  104  A    between atoms: _240  and  _241
REMARK  105  A    between atoms: _243  and  _245
REMARK  106  A    between atoms: _245  and  _246
REMARK  107  A    between atoms: _245  and  _248
REMARK  108  A    between atoms: _248  and  _249
REMARK  109  A    between atoms: _259  and  _261
REMARK  110  A    between atoms: _261  and  _262
REMARK  111  A    between atoms: _261  and  _264
REMARK  112  A    between atoms: _264  and  _265
REMARK  113  A    between atoms: _268  and  _270
REMARK  114  A    between atoms: _270  and  _271
REMARK  115  A    between atoms: _270  and  _273
REMARK  116  A    between atoms: _273  and  _274
REMARK  117  A    between atoms: _277  and  _279
REMARK  118  A    between atoms: _279  and  _280
REMARK  119  A    between atoms: _279  and  _282
REMARK  120  A    between atoms: _282  and  _283
REMARK  121  A    between atoms: _283  and  _284
REMARK  122  A    between atoms: _284  and  _285
REMARK  123  A    between atoms: _285  and  _286
REMARK  124  A    between atoms: _290  and  _292
REMARK  125  A    between atoms: _292  and  _293
REMARK  126  A    between atoms: _292  and  _295
REMARK  127  A    between atoms: _295  and  _296
REMARK  128  A    between atoms: _299  and  _301
REMARK  129  A    between atoms: _301  and  _302
REMARK  130  A    between atoms: _305  and  _307
REMARK  131  A    between atoms: _307  and  _308
REMARK  132  A    between atoms: _311  and  _313
REMARK  133  A    between atoms: _313  and  _314
REMARK  134  A    between atoms: _313  and  _316
REMARK  135  A    between atoms: _316  and  _317
REMARK  136  A    between atoms: _321  and  _322
REMARK  137  A    between atoms: _327  and  _329
REMARK  138  A    between atoms: _329  and  _330
REMARK  139  A    between atoms: _329  and  _332
REMARK  140  A    between atoms: _332  and  _333
REMARK  141  A    between atoms: _338  and  _340
REMARK  142  A    between atoms: _340  and  _341
REMARK  143  A    between atoms: _340  and  _343
REMARK  144  A    between atoms: _343  and  _344
REMARK  145  A    between atoms: _347  and  _349
REMARK  146  A    between atoms: _349  and  _350
REMARK  147  A    between atoms: _349  and  _352
REMARK  148  A    between atoms: _352  and  _353
REMARK  149  A    between atoms: _359  and  _361
REMARK  150  A    between atoms: _361  and  _362
REMARK  151  A    between atoms: _361  and  _364
REMARK  152  A    between atoms: _367  and  _369
REMARK  153  A    between atoms: _369  and  _370
REMARK  154  A    between atoms: _369  and  _372
REMARK  155  A    between atoms: _375  and  _377
REMARK  156  A    between atoms: _377  and  _378
REMARK  157  A    between atoms: _380  and  _382
REMARK  158  A    between atoms: _382  and  _383
REMARK  159  A    between atoms: _385  and  _387
REMARK  160  A    between atoms: _387  and  _388
REMARK  161  A    between atoms: _387  and  _390
REMARK  162  A    between atoms: _390  and  _391
REMARK  163  A    between atoms: _394  and  _396
REMARK  164  A    between atoms: _396  and  _397
REMARK  165  A    between atoms: _396  and  _399
REMARK  166  A    between atoms: _399  and  _400
REMARK  167  A    between atoms: _400  and  _402
REMARK  168  A    between atoms: _402  and  MG_565
REMARK  169  A    between atoms: _403  and  _405
REMARK  170  A    between atoms: _405  and  _406
REMARK  171  A    between atoms: _405  and  _408
REMARK  172  A    between atoms: _408  and  _409
REMARK  173  A    between atoms: _414  and  _415
REMARK  174  A    between atoms: _417  and  _419
REMARK  175  A    between atoms: _419  and  _420
REMARK  176  A    between atoms: _419  and  _422
REMARK  177  A    between atoms: _422  and  _423
REMARK  178  A    between atoms: _426  and  _428
REMARK  179  A    between atoms: _428  and  _429
REMARK  180  A    between atoms: _428  and  _431
REMARK  181  A    between atoms: _431  and  _432
REMARK  182  A    between atoms: _432  and  _433
REMARK  183  A    between atoms: _436  and  _438
REMARK  184  A    between atoms: _438  and  _439
REMARK  185  A    between atoms: _438  and  _441
REMARK  186  A    between atoms: _441  and  _442
REMARK  187  A    between atoms: _442  and  _443
REMARK  188  A    between atoms: _443  and  _444
REMARK  189  A    between atoms: _453  and  _455
REMARK  190  A    between atoms: _455  and  _456
REMARK  191  A    between atoms: _455  and  _458
REMARK  192  A    between atoms: _458  and  _459
REMARK  193  A    between atoms: _464  and  _465
REMARK  194  A    between atoms: _467  and  _469
REMARK  195  A    between atoms: _469  and  _470
REMARK  196  A    between atoms: _469  and  _472
REMARK  197  A    between atoms: _472  and  _473
REMARK  198  A    between atoms: _473  and  _474
REMARK  199  A    between atoms: _474  and  _475
REMARK  200  A    between atoms: _484  and  _486
REMARK  201  A    between atoms: _486  and  _487
REMARK  202  A    between atoms: _486  and  _489
REMARK  203  A    between atoms: _489  and  _490
REMARK  204  A    between atoms: _493  and  _495
REMARK  205  A    between atoms: _495  and  _496
REMARK  206  A    between atoms: _498  and  _500
REMARK  207  A    between atoms: _500  and  _501
REMARK  208  A    between atoms: _500  and  _503
REMARK  209  A    between atoms: _503  and  _504
REMARK  210  A    between atoms: _507  and  _509
REMARK  211  A    between atoms: _509  and  _510
REMARK  212  A    between atoms: _509  and  _512
REMARK  213  A    between atoms: _512  and  _513
REMARK  214  A    between atoms: _518  and  _519
REMARK  215  A    between atoms: _521  and  _523
REMARK  216  A    between atoms: _523  and  _524
REMARK  217  A    between atoms: _523  and  _526
REMARK  218  A    between atoms: _526  and  _527
REMARK  219  A    between atoms: _533  and  _535
REMARK  220  A    between atoms: _535  and  _536
REMARK  221  A    between atoms: _535  and  _538
REMARK  222  A    between atoms: _538  and  _539
REMARK  223  A    between atoms: _545  and  _547
REMARK  224  A    between atoms: _547  and  _548
REMARK  225  A    between atoms: _547  and  _550
REMARK  226  A    between atoms: _550  and  _551
REMARK  227  A    between atoms: _554  and  _556
REMARK  228  A    between atoms: _556  and  _557
REMARK  229  A    between atoms: _556  and  _559
REMARK  230  A    between atoms: _559  and  _560
REMARK                            x       y       z     vdW  Elec       q    Type
REMARK                         _______ _______ _______ _____ _____    ______ ____
ROOT
ATOM      1  O   HOH     1     -12.951  21.221 118.404  0.00  0.00    +0.000 OA
ENDROOT
TORSDOF 0
REMARK  Name = ../refined-set-2016/4rhx/4rhx_pocket.pdb
REMARK  230 active torsions:
REMARK  status: ('A' for Active; 'I' for Inactive)
REMARK    1  A    between atoms: _1  and  _3
REMARK    2  A    between atoms: _3  and  _4
REMARK    3  A    between atoms: _3  and  _6
REMARK    4  A    between atoms: _6  and  _7
REMARK    5  A    between atoms: _10  and  _12
REMARK    6  A    between atoms: _12  and  _13
REMARK    7  A    between atoms: _12  and  _15
REMARK    8  A    between atoms: _18  and  _20
REMARK    9  A    between atoms: _20  and  _21
REMARK   10  A    between atoms: _20  and  _23
REMARK   11  A    between atoms: _23  and  _24
REMARK   12  A    between atoms: _27  and  _29
REMARK   13  A    between atoms: _29  and  _30
REMARK   14  A    between atoms: _29  and  _32
REMARK   15  A    between atoms: _32  and  _33
REMARK   16  A    between atoms: _33  and  _34
REMARK   17  A    between atoms: _34  and  _35
REMARK   18  A    between atoms: _35  and  _36
REMARK   19  A    between atoms: _40  and  _42
REMARK   20  A    between atoms: _42  and  _43
REMARK   21  A    between atoms: _45  and  _47
REMARK   22  A    between atoms: _47  and  _48
REMARK   23  A    between atoms: _51  and  _53
REMARK   24  A    between atoms: _53  and  _54
REMARK   25  A    between atoms: _53  and  _56
REMARK   26  A    between atoms: _59  and  _61
REMARK   27  A    between atoms: _61  and  _62
REMARK   28  A    between atoms: _61  and  _64
REMARK   29  A    between atoms: _64  and  _65
REMARK   30  A    between atoms: _65  and  _66
REMARK   31  A    between atoms: _68  and  _70
REMARK   32  A    between atoms: _70  and  _71
REMARK   33  A    between atoms: _74  and  _76
REMARK   34  A    between atoms: _76  and  _77
REMARK   35  A    between atoms: _76  and  _79
REMARK   36  A    between atoms: _82  and  _84
REMARK   37  A    between atoms: _84  and  _85
REMARK   38  A    between atoms: _84  and  _87
REMARK   39  A    between atoms: _87  and  _88
REMARK   40  A    between atoms: _90  and  _92
REMARK   41  A    between atoms: _92  and  _93
REMARK   42  A    between atoms: _92  and  _95
REMARK   43  A    between atoms: _95  and  _96
REMARK   44  A    between atoms: _98  and  _100
REMARK   45  A    between atoms: _100  and  _101
REMARK   46  A    between atoms: _100  and  _103
REMARK   47  A    between atoms: _103  and  _104
REMARK   48  A    between atoms: _109  and  _110
REMARK   49  A    between atoms: _112  and  _114
REMARK   50  A    between atoms: _114  and  _115
REMARK   51  A    between atoms: _117  and  _119
REMARK   52  A    between atoms: _119  and  _120
REMARK   53  A    between atoms: _119  and  _122
REMARK   54  A    between atoms: _125  and  _127
REMARK   55  A    between atoms: _127  and  _128
REMARK   56  A    between atoms: _127  and  _130
REMARK   57  A    between atoms: _130  and  _131
REMARK   58  A    between atoms: _131  and  _132
REMARK   59  A    between atoms: _132  and  _133
REMARK   60  A    between atoms: _142  and  _144
REMARK   61  A    between atoms: _144  and  _145
REMARK   62  A    between atoms: _144  and  _147
REMARK   63  A    between atoms: _147  and  _148
REMARK   64  A    between atoms: _151  and  _153
REMARK   65  A    between atoms: _153  and  _154
REMARK   66  A    between atoms: _153  and  _156
REMARK   67  A    between atoms: _156  and  _157
REMARK   68  A    between atoms: _157  and  _158
REMARK   69  A    between atoms: _161  and  _163
REMARK   70  A    between atoms: _163  and  _164
REMARK   71  A    between atoms: _163  and  _166
REMARK   72  A    between atoms: _166  and  _167
REMARK   73  A    between atoms: _170  and  _172
REMARK   74  A    between atoms: _172  and  _173
REMARK   75  A    between atoms: _172  and  _175
REMARK   76  A    between atoms: _178  and  _180
REMARK   77  A    between atoms: _180  and  _181
REMARK   78  A    between atoms: _180  and  _183
REMARK   79  A    between atoms: _186  and  _188
REMARK   80  A    between atoms: _188  and  _189
REMARK   81  A    between atoms: _188  and  _191
REMARK   82  A    between atoms: _191  and  _192
REMARK   83  A    between atoms: _195  and  _197
REMARK   84  A    between atoms: _197  and  _198
REMARK   85  A    between atoms: _197  and  _200
REMARK   86  A    between atoms: _200  and  _201
REMARK   87  A    between atoms: _203  and  _205
REMARK   88  A    between atoms: _205  and  _206
REMARK   89  A    between atoms: _208  and  _210
REMARK   90  A    between atoms: _210  and  _211
REMARK   91  A    between atoms: _210  and  _213
REMARK   92  A    between atoms: _213  and  _214
REMARK   93  A    between atoms: _217  and  _219
REMARK   94  A    between atoms: _219  and  _220
REMARK   95  A    between atoms: _219  and  _222
REMARK   96  A    between atoms: _222  and  _223
REMARK   97  A    between atoms: _226  and  _228
REMARK   98  A    between atoms: _228  and  _229
REMARK   99  A    between atoms: _228  and  _231
REMARK  100  A    between atoms: _231  and  _232
REMARK  101  A    between atoms: _235  and  _237
REMARK  102  A    between atoms: _237  and  _238
REMARK  103  A    between atoms: _237  and  _240
REMARK  104  A    between atoms: _240  and  _241
REMARK  105  A    between atoms: _243  and  _245
REMARK  106  A    between atoms: _245  and  _246
REMARK  107  A    between atoms: _245  and  _248
REMARK  108  A    between atoms: _248  and  _249
REMARK  109  A    between atoms: _259  and  _261
REMARK  110  A    between atoms: _261  and  _262
REMARK  111  A    between atoms: _261  and  _264
REMARK  112  A    between atoms: _264  and  _265
REMARK  113  A    between atoms: _268  and  _270
REMARK  114  A    between atoms: _270  and  _271
REMARK  115  A    between atoms: _270  and  _273
REMARK  116  A    between atoms: _273  and  _274
REMARK  117  A    between atoms: _277  and  _279
REMARK  118  A    between atoms: _279  and  _280
REMARK  119  A    between atoms: _279  and  _282
REMARK  120  A    between atoms: _282  and  _283
REMARK  121  A    between atoms: _283  and  _284
REMARK  122  A    between atoms: _284  and  _285
REMARK  123  A    between atoms: _285  and  _286
REMARK  124  A    between atoms: _290  and  _292
REMARK  125  A    between atoms: _292  and  _293
REMARK  126  A    between atoms: _292  and  _295
REMARK  127  A    between atoms: _295  and  _296
REMARK  128  A    between atoms: _299  and  _301
REMARK  129  A    between atoms: _301  and  _302
REMARK  130  A    between atoms: _305  and  _307
REMARK  131  A    between atoms: _307  and  _308
REMARK  132  A    between atoms: _311  and  _313
REMARK  133  A    between atoms: _313  and  _314
REMARK  134  A    between atoms: _313  and  _316
REMARK  135  A    between atoms: _316  and  _317
REMARK  136  A    between atoms: _321  and  _322
REMARK  137  A    between atoms: _327  and  _329
REMARK  138  A    between atoms: _329  and  _330
REMARK  139  A    between atoms: _329  and  _332
REMARK  140  A    between atoms: _332  and  _333
REMARK  141  A    between atoms: _338  and  _340
REMARK  142  A    between atoms: _340  and  _341
REMARK  143  A    between atoms: _340  and  _343
REMARK  144  A    between atoms: _343  and  _344
REMARK  145  A    between atoms: _347  and  _349
REMARK  146  A    between atoms: _349  and  _350
REMARK  147  A    between atoms: _349  and  _352
REMARK  148  A    between atoms: _352  and  _353
REMARK  149  A    between atoms: _359  and  _361
REMARK  150  A    between atoms: _361  and  _362
REMARK  151  A    between atoms: _361  and  _364
REMARK  152  A    between atoms: _367  and  _369
REMARK  153  A    between atoms: _369  and  _370
REMARK  154  A    between atoms: _369  and  _372
REMARK  155  A    between atoms: _375  and  _377
REMARK  156  A    between atoms: _377  and  _378
REMARK  157  A    between atoms: _380  and  _382
REMARK  158  A    between atoms: _382  and  _383
REMARK  159  A    between atoms: _385  and  _387
REMARK  160  A    between atoms: _387  and  _388
REMARK  161  A    between atoms: _387  and  _390
REMARK  162  A    between atoms: _390  and  _391
REMARK  163  A    between atoms: _394  and  _396
REMARK  164  A    between atoms: _396  and  _397
REMARK  165  A    between atoms: _396  and  _399
REMARK  166  A    between atoms: _399  and  _400
REMARK  167  A    between atoms: _400  and  _402
REMARK  168  A    between atoms: _402  and  MG_565
REMARK  169  A    between atoms: _403  and  _405
REMARK  170  A    between atoms: _405  and  _406
REMARK  171  A    between atoms: _405  and  _408
REMARK  172  A    between atoms: _408  and  _409
REMARK  173  A    between atoms: _414  and  _415
REMARK  174  A    between atoms: _417  and  _419
REMARK  175  A    between atoms: _419  and  _420
REMARK  176  A    between atoms: _419  and  _422
REMARK  177  A    between atoms: _422  and  _423
REMARK  178  A    between atoms: _426  and  _428
REMARK  179  A    between atoms: _428  and  _429
REMARK  180  A    between atoms: _428  and  _431
REMARK  181  A    between atoms: _431  and  _432
REMARK  182  A    between atoms: _432  and  _433
REMARK  183  A    between atoms: _436  and  _438
REMARK  184  A    between atoms: _438  and  _439
REMARK  185  A    between atoms: _438  and  _441
REMARK  186  A    between atoms: _441  and  _442
REMARK  187  A    between atoms: _442  and  _443
REMARK  188  A    between atoms: _443  and  _444
REMARK  189  A    between atoms: _453  and  _455
REMARK  190  A    between atoms: _455  and  _456
REMARK  191  A    between atoms: _455  and  _458
REMARK  192  A    between atoms: _458  and  _459
REMARK  193  A    between atoms: _464  and  _465
REMARK  194  A    between atoms: _467  and  _469
REMARK  195  A    between atoms: _469  and  _470
REMARK  196  A    between atoms: _469  and  _472
REMARK  197  A    between atoms: _472  and  _473
REMARK  198  A    between atoms: _473  and  _474
REMARK  199  A    between atoms: _474  and  _475
REMARK  200  A    between atoms: _484  and  _486
REMARK  201  A    between atoms: _486  and  _487
REMARK  202  A    between atoms: _486  and  _489
REMARK  203  A    between atoms: _489  and  _490
REMARK  204  A    between atoms: _493  and  _495
REMARK  205  A    between atoms: _495  and  _496
REMARK  206  A    between atoms: _498  and  _500
REMARK  207  A    between atoms: _500  and  _501
REMARK  208  A    between atoms: _500  and  _503
REMARK  209  A    between atoms: _503  and  _504
REMARK  210  A    between atoms: _507  and  _509
REMARK  211  A    between atoms: _509  and  _510
REMARK  212  A    between atoms: _509  and  _512
REMARK  213  A    between atoms: _512  and  _513
REMARK  214  A    between atoms: _518  and  _519
REMARK  215  A    between atoms: _521  and  _523
REMARK  216  A    between atoms: _523  and  _524
REMARK  217  A    between atoms: _523  and  _526
REMARK  218  A    between atoms: _526  and  _527
REMARK  219  A    between atoms: _533  and  _535
REMARK  220  A    between atoms: _535  and  _536
REMARK  221  A    between atoms: _535  and  _538
REMARK  222  A    between atoms: _538  and  _539
REMARK  223  A    between atoms: _545  and  _547
REMARK  224  A    between atoms: _547  and  _548
REMARK  225  A    between atoms: _547  and  _550
REMARK  226  A    between atoms: _550  and  _551
REMARK  227  A    between atoms: _554  and  _556
REMARK  228  A    between atoms: _556  and  _557
REMARK  229  A    between atoms: _556  and  _559
REMARK  230  A    between atoms: _559  and  _560
REMARK                            x       y       z     vdW  Elec       q    Type
REMARK                         _______ _______ _______ _____ _____    ______ ____
ROOT
ATOM      1  O   HOH     1      -2.173   4.826 121.565  0.00  0.00    +0.000 OA
ENDROOT
TORSDOF 0
REMARK  Name = ../refined-set-2016/4rhx/4rhx_pocket.pdb
REMARK  230 active torsions:
REMARK  status: ('A' for Active; 'I' for Inactive)
REMARK    1  A    between atoms: _1  and  _3
REMARK    2  A    between atoms: _3  and  _4
REMARK    3  A    between atoms: _3  and  _6
REMARK    4  A    between atoms: _6  and  _7
REMARK    5  A    between atoms: _10  and  _12
REMARK    6  A    between atoms: _12  and  _13
REMARK    7  A    between atoms: _12  and  _15
REMARK    8  A    between atoms: _18  and  _20
REMARK    9  A    between atoms: _20  and  _21
REMARK   10  A    between atoms: _20  and  _23
REMARK   11  A    between atoms: _23  and  _24
REMARK   12  A    between atoms: _27  and  _29
REMARK   13  A    between atoms: _29  and  _30
REMARK   14  A    between atoms: _29  and  _32
REMARK   15  A    between atoms: _32  and  _33
REMARK   16  A    between atoms: _33  and  _34
REMARK   17  A    between atoms: _34  and  _35
REMARK   18  A    between atoms: _35  and  _36
REMARK   19  A    between atoms: _40  and  _42
REMARK   20  A    between atoms: _42  and  _43
REMARK   21  A    between atoms: _45  and  _47
REMARK   22  A    between atoms: _47  and  _48
REMARK   23  A    between atoms: _51  and  _53
REMARK   24  A    between atoms: _53  and  _54
REMARK   25  A    between atoms: _53  and  _56
REMARK   26  A    between atoms: _59  and  _61
REMARK   27  A    between atoms: _61  and  _62
REMARK   28  A    between atoms: _61  and  _64
REMARK   29  A    between atoms: _64  and  _65
REMARK   30  A    between atoms: _65  and  _66
REMARK   31  A    between atoms: _68  and  _70
REMARK   32  A    between atoms: _70  and  _71
REMARK   33  A    between atoms: _74  and  _76
REMARK   34  A    between atoms: _76  and  _77
REMARK   35  A    between atoms: _76  and  _79
REMARK   36  A    between atoms: _82  and  _84
REMARK   37  A    between atoms: _84  and  _85
REMARK   38  A    between atoms: _84  and  _87
REMARK   39  A    between atoms: _87  and  _88
REMARK   40  A    between atoms: _90  and  _92
REMARK   41  A    between atoms: _92  and  _93
REMARK   42  A    between atoms: _92  and  _95
REMARK   43  A    between atoms: _95  and  _96
REMARK   44  A    between atoms: _98  and  _100
REMARK   45  A    between atoms: _100  and  _101
REMARK   46  A    between atoms: _100  and  _103
REMARK   47  A    between atoms: _103  and  _104
REMARK   48  A    between atoms: _109  and  _110
REMARK   49  A    between atoms: _112  and  _114
REMARK   50  A    between atoms: _114  and  _115
REMARK   51  A    between atoms: _117  and  _119
REMARK   52  A    between atoms: _119  and  _120
REMARK   53  A    between atoms: _119  and  _122
REMARK   54  A    between atoms: _125  and  _127
REMARK   55  A    between atoms: _127  and  _128
REMARK   56  A    between atoms: _127  and  _130
REMARK   57  A    between atoms: _130  and  _131
REMARK   58  A    between atoms: _131  and  _132
REMARK   59  A    between atoms: _132  and  _133
REMARK   60  A    between atoms: _142  and  _144
REMARK   61  A    between atoms: _144  and  _145
REMARK   62  A    between atoms: _144  and  _147
REMARK   63  A    between atoms: _147  and  _148
REMARK   64  A    between atoms: _151  and  _153
REMARK   65  A    between atoms: _153  and  _154
REMARK   66  A    between atoms: _153  and  _156
REMARK   67  A    between atoms: _156  and  _157
REMARK   68  A    between atoms: _157  and  _158
REMARK   69  A    between atoms: _161  and  _163
REMARK   70  A    between atoms: _163  and  _164
REMARK   71  A    between atoms: _163  and  _166
REMARK   72  A    between atoms: _166  and  _167
REMARK   73  A    between atoms: _170  and  _172
REMARK   74  A    between atoms: _172  and  _173
REMARK   75  A    between atoms: _172  and  _175
REMARK   76  A    between atoms: _178  and  _180
REMARK   77  A    between atoms: _180  and  _181
REMARK   78  A    between atoms: _180  and  _183
REMARK   79  A    between atoms: _186  and  _188
REMARK   80  A    between atoms: _188  and  _189
REMARK   81  A    between atoms: _188  and  _191
REMARK   82  A    between atoms: _191  and  _192
REMARK   83  A    between atoms: _195  and  _197
REMARK   84  A    between atoms: _197  and  _198
REMARK   85  A    between atoms: _197  and  _200
REMARK   86  A    between atoms: _200  and  _201
REMARK   87  A    between atoms: _203  and  _205
REMARK   88  A    between atoms: _205  and  _206
REMARK   89  A    between atoms: _208  and  _210
REMARK   90  A    between atoms: _210  and  _211
REMARK   91  A    between atoms: _210  and  _213
REMARK   92  A    between atoms: _213  and  _214
REMARK   93  A    between atoms: _217  and  _219
REMARK   94  A    between atoms: _219  and  _220
REMARK   95  A    between atoms: _219  and  _222
REMARK   96  A    between atoms: _222  and  _223
REMARK   97  A    between atoms: _226  and  _228
REMARK   98  A    between atoms: _228  and  _229
REMARK   99  A    between atoms: _228  and  _231
REMARK  100  A    between atoms: _231  and  _232
REMARK  101  A    between atoms: _235  and  _237
REMARK  102  A    between atoms: _237  and  _238
REMARK  103  A    between atoms: _237  and  _240
REMARK  104  A    between atoms: _240  and  _241
REMARK  105  A    between atoms: _243  and  _245
REMARK  106  A    between atoms: _245  and  _246
REMARK  107  A    between atoms: _245  and  _248
REMARK  108  A    between atoms: _248  and  _249
REMARK  109  A    between atoms: _259  and  _261
REMARK  110  A    between atoms: _261  and  _262
REMARK  111  A    between atoms: _261  and  _264
REMARK  112  A    between atoms: _264  and  _265
REMARK  113  A    between atoms: _268  and  _270
REMARK  114  A    between atoms: _270  and  _271
REMARK  115  A    between atoms: _270  and  _273
REMARK  116  A    between atoms: _273  and  _274
REMARK  117  A    between atoms: _277  and  _279
REMARK  118  A    between atoms: _279  and  _280
REMARK  119  A    between atoms: _279  and  _282
REMARK  120  A    between atoms: _282  and  _283
REMARK  121  A    between atoms: _283  and  _284
REMARK  122  A    between atoms: _284  and  _285
REMARK  123  A    between atoms: _285  and  _286
REMARK  124  A    between atoms: _290  and  _292
REMARK  125  A    between atoms: _292  and  _293
REMARK  126  A    between atoms: _292  and  _295
REMARK  127  A    between atoms: _295  and  _296
REMARK  128  A    between atoms: _299  and  _301
REMARK  129  A    between atoms: _301  and  _302
REMARK  130  A    between atoms: _305  and  _307
REMARK  131  A    between atoms: _307  and  _308
REMARK  132  A    between atoms: _311  and  _313
REMARK  133  A    between atoms: _313  and  _314
REMARK  134  A    between atoms: _313  and  _316
REMARK  135  A    between atoms: _316  and  _317
REMARK  136  A    between atoms: _321  and  _322
REMARK  137  A    between atoms: _327  and  _329
REMARK  138  A    between atoms: _329  and  _330
REMARK  139  A    between atoms: _329  and  _332
REMARK  140  A    between atoms: _332  and  _333
REMARK  141  A    between atoms: _338  and  _340
REMARK  142  A    between atoms: _340  and  _341
REMARK  143  A    between atoms: _340  and  _343
REMARK  144  A    between atoms: _343  and  _344
REMARK  145  A    between atoms: _347  and  _349
REMARK  146  A    between atoms: _349  and  _350
REMARK  147  A    between atoms: _349  and  _352
REMARK  148  A    between atoms: _352  and  _353
REMARK  149  A    between atoms: _359  and  _361
REMARK  150  A    between atoms: _361  and  _362
REMARK  151  A    between atoms: _361  and  _364
REMARK  152  A    between atoms: _367  and  _369
REMARK  153  A    between atoms: _369  and  _370
REMARK  154  A    between atoms: _369  and  _372
REMARK  155  A    between atoms: _375  and  _377
REMARK  156  A    between atoms: _377  and  _378
REMARK  157  A    between atoms: _380  and  _382
REMARK  158  A    between atoms: _382  and  _383
REMARK  159  A    between atoms: _385  and  _387
REMARK  160  A    between atoms: _387  and  _388
REMARK  161  A    between atoms: _387  and  _390
REMARK  162  A    between atoms: _390  and  _391
REMARK  163  A    between atoms: _394  and  _396
REMARK  164  A    between atoms: _396  and  _397
REMARK  165  A    between atoms: _396  and  _399
REMARK  166  A    between atoms: _399  and  _400
REMARK  167  A    between atoms: _400  and  _402
REMARK  168  A    between atoms: _402  and  MG_565
REMARK  169  A    between atoms: _403  and  _405
REMARK  170  A    between atoms: _405  and  _406
REMARK  171  A    between atoms: _405  and  _408
REMARK  172  A    between atoms: _408  and  _409
REMARK  173  A    between atoms: _414  and  _415
REMARK  174  A    between atoms: _417  and  _419
REMARK  175  A    between atoms: _419  and  _420
REMARK  176  A    between atoms: _419  and  _422
REMARK  177  A    between atoms: _422  and  _423
REMARK  178  A    between atoms: _426  and  _428
REMARK  179  A    between atoms: _428  and  _429
REMARK  180  A    between atoms: _428  and  _431
REMARK  181  A    between atoms: _431  and  _432
REMARK  182  A    between atoms: _432  and  _433
REMARK  183  A    between atoms: _436  and  _438
REMARK  184  A    between atoms: _438  and  _439
REMARK  185  A    between atoms: _438  and  _441
REMARK  186  A    between atoms: _441  and  _442
REMARK  187  A    between atoms: _442  and  _443
REMARK  188  A    between atoms: _443  and  _444
REMARK  189  A    between atoms: _453  and  _455
REMARK  190  A    between atoms: _455  and  _456
REMARK  191  A    between atoms: _455  and  _458
REMARK  192  A    between atoms: _458  and  _459
REMARK  193  A    between atoms: _464  and  _465
REMARK  194  A    between atoms: _467  and  _469
REMARK  195  A    between atoms: _469  and  _470
REMARK  196  A    between atoms: _469  and  _472
REMARK  197  A    between atoms: _472  and  _473
REMARK  198  A    between atoms: _473  and  _474
REMARK  199  A    between atoms: _474  and  _475
REMARK  200  A    between atoms: _484  and  _486
REMARK  201  A    between atoms: _486  and  _487
REMARK  202  A    between atoms: _486  and  _489
REMARK  203  A    between atoms: _489  and  _490
REMARK  204  A    between atoms: _493  and  _495
REMARK  205  A    between atoms: _495  and  _496
REMARK  206  A    between atoms: _498  and  _500
REMARK  207  A    between atoms: _500  and  _501
REMARK  208  A    between atoms: _500  and  _503
REMARK  209  A    between atoms: _503  and  _504
REMARK  210  A    between atoms: _507  and  _509
REMARK  211  A    between atoms: _509  and  _510
REMARK  212  A    between atoms: _509  and  _512
REMARK  213  A    between atoms: _512  and  _513
REMARK  214  A    between atoms: _518  and  _519
REMARK  215  A    between atoms: _521  and  _523
REMARK  216  A    between atoms: _523  and  _524
REMARK  217  A    between atoms: _523  and  _526
REMARK  218  A    between atoms: _526  and  _527
REMARK  219  A    between atoms: _533  and  _535
REMARK  220  A    between atoms: _535  and  _536
REMARK  221  A    between atoms: _535  and  _538
REMARK  222  A    between atoms: _538  and  _539
REMARK  223  A    between atoms: _545  and  _547
REMARK  224  A    between atoms: _547  and  _548
REMARK  225  A    between atoms: _547  and  _550
REMARK  226  A    between atoms: _550  and  _551
REMARK  227  A    between atoms: _554  and  _556
REMARK  228  A    between atoms: _556  and  _557
REMARK  229  A    between atoms: _556  and  _559
REMARK  230  A    between atoms: _559  and  _560
REMARK                            x       y       z     vdW  Elec       q    Type
REMARK                         _______ _______ _______ _____ _____    ______ ____
ROOT
ATOM      1  O   HOH     1      -2.472   5.430 118.997  0.00  0.00    +0.000 OA
ENDROOT
TORSDOF 0
REMARK  Name = ../refined-set-2016/4rhx/4rhx_pocket.pdb
REMARK  230 active torsions:
REMARK  status: ('A' for Active; 'I' for Inactive)
REMARK    1  A    between atoms: _1  and  _3
REMARK    2  A    between atoms: _3  and  _4
REMARK    3  A    between atoms: _3  and  _6
REMARK    4  A    between atoms: _6  and  _7
REMARK    5  A    between atoms: _10  and  _12
REMARK    6  A    between atoms: _12  and  _13
REMARK    7  A    between atoms: _12  and  _15
REMARK    8  A    between atoms: _18  and  _20
REMARK    9  A    between atoms: _20  and  _21
REMARK   10  A    between atoms: _20  and  _23
REMARK   11  A    between atoms: _23  and  _24
REMARK   12  A    between atoms: _27  and  _29
REMARK   13  A    between atoms: _29  and  _30
REMARK   14  A    between atoms: _29  and  _32
REMARK   15  A    between atoms: _32  and  _33
REMARK   16  A    between atoms: _33  and  _34
REMARK   17  A    between atoms: _34  and  _35
REMARK   18  A    between atoms: _35  and  _36
REMARK   19  A    between atoms: _40  and  _42
REMARK   20  A    between atoms: _42  and  _43
REMARK   21  A    between atoms: _45  and  _47
REMARK   22  A    between atoms: _47  and  _48
REMARK   23  A    between atoms: _51  and  _53
REMARK   24  A    between atoms: _53  and  _54
REMARK   25  A    between atoms: _53  and  _56
REMARK   26  A    between atoms: _59  and  _61
REMARK   27  A    between atoms: _61  and  _62
REMARK   28  A    between atoms: _61  and  _64
REMARK   29  A    between atoms: _64  and  _65
REMARK   30  A    between atoms: _65  and  _66
REMARK   31  A    between atoms: _68  and  _70
REMARK   32  A    between atoms: _70  and  _71
REMARK   33  A    between atoms: _74  and  _76
REMARK   34  A    between atoms: _76  and  _77
REMARK   35  A    between atoms: _76  and  _79
REMARK   36  A    between atoms: _82  and  _84
REMARK   37  A    between atoms: _84  and  _85
REMARK   38  A    between atoms: _84  and  _87
REMARK   39  A    between atoms: _87  and  _88
REMARK   40  A    between atoms: _90  and  _92
REMARK   41  A    between atoms: _92  and  _93
REMARK   42  A    between atoms: _92  and  _95
REMARK   43  A    between atoms: _95  and  _96
REMARK   44  A    between atoms: _98  and  _100
REMARK   45  A    between atoms: _100  and  _101
REMARK   46  A    between atoms: _100  and  _103
REMARK   47  A    between atoms: _103  and  _104
REMARK   48  A    between atoms: _109  and  _110
REMARK   49  A    between atoms: _112  and  _114
REMARK   50  A    between atoms: _114  and  _115
REMARK   51  A    between atoms: _117  and  _119
REMARK   52  A    between atoms: _119  and  _120
REMARK   53  A    between atoms: _119  and  _122
REMARK   54  A    between atoms: _125  and  _127
REMARK   55  A    between atoms: _127  and  _128
REMARK   56  A    between atoms: _127  and  _130
REMARK   57  A    between atoms: _130  and  _131
REMARK   58  A    between atoms: _131  and  _132
REMARK   59  A    between atoms: _132  and  _133
REMARK   60  A    between atoms: _142  and  _144
REMARK   61  A    between atoms: _144  and  _145
REMARK   62  A    between atoms: _144  and  _147
REMARK   63  A    between atoms: _147  and  _148
REMARK   64  A    between atoms: _151  and  _153
REMARK   65  A    between atoms: _153  and  _154
REMARK   66  A    between atoms: _153  and  _156
REMARK   67  A    between atoms: _156  and  _157
REMARK   68  A    between atoms: _157  and  _158
REMARK   69  A    between atoms: _161  and  _163
REMARK   70  A    between atoms: _163  and  _164
REMARK   71  A    between atoms: _163  and  _166
REMARK   72  A    between atoms: _166  and  _167
REMARK   73  A    between atoms: _170  and  _172
REMARK   74  A    between atoms: _172  and  _173
REMARK   75  A    between atoms: _172  and  _175
REMARK   76  A    between atoms: _178  and  _180
REMARK   77  A    between atoms: _180  and  _181
REMARK   78  A    between atoms: _180  and  _183
REMARK   79  A    between atoms: _186  and  _188
REMARK   80  A    between atoms: _188  and  _189
REMARK   81  A    between atoms: _188  and  _191
REMARK   82  A    between atoms: _191  and  _192
REMARK   83  A    between atoms: _195  and  _197
REMARK   84  A    between atoms: _197  and  _198
REMARK   85  A    between atoms: _197  and  _200
REMARK   86  A    between atoms: _200  and  _201
REMARK   87  A    between atoms: _203  and  _205
REMARK   88  A    between atoms: _205  and  _206
REMARK   89  A    between atoms: _208  and  _210
REMARK   90  A    between atoms: _210  and  _211
REMARK   91  A    between atoms: _210  and  _213
REMARK   92  A    between atoms: _213  and  _214
REMARK   93  A    between atoms: _217  and  _219
REMARK   94  A    between atoms: _219  and  _220
REMARK   95  A    between atoms: _219  and  _222
REMARK   96  A    between atoms: _222  and  _223
REMARK   97  A    between atoms: _226  and  _228
REMARK   98  A    between atoms: _228  and  _229
REMARK   99  A    between atoms: _228  and  _231
REMARK  100  A    between atoms: _231  and  _232
REMARK  101  A    between atoms: _235  and  _237
REMARK  102  A    between atoms: _237  and  _238
REMARK  103  A    between atoms: _237  and  _240
REMARK  104  A    between atoms: _240  and  _241
REMARK  105  A    between atoms: _243  and  _245
REMARK  106  A    between atoms: _245  and  _246
REMARK  107  A    between atoms: _245  and  _248
REMARK  108  A    between atoms: _248  and  _249
REMARK  109  A    between atoms: _259  and  _261
REMARK  110  A    between atoms: _261  and  _262
REMARK  111  A    between atoms: _261  and  _264
REMARK  112  A    between atoms: _264  and  _265
REMARK  113  A    between atoms: _268  and  _270
REMARK  114  A    between atoms: _270  and  _271
REMARK  115  A    between atoms: _270  and  _273
REMARK  116  A    between atoms: _273  and  _274
REMARK  117  A    between atoms: _277  and  _279
REMARK  118  A    between atoms: _279  and  _280
REMARK  119  A    between atoms: _279  and  _282
REMARK  120  A    between atoms: _282  and  _283
REMARK  121  A    between atoms: _283  and  _284
REMARK  122  A    between atoms: _284  and  _285
REMARK  123  A    between atoms: _285  and  _286
REMARK  124  A    between atoms: _290  and  _292
REMARK  125  A    between atoms: _292  and  _293
REMARK  126  A    between atoms: _292  and  _295
REMARK  127  A    between atoms: _295  and  _296
REMARK  128  A    between atoms: _299  and  _301
REMARK  129  A    between atoms: _301  and  _302
REMARK  130  A    between atoms: _305  and  _307
REMARK  131  A    between atoms: _307  and  _308
REMARK  132  A    between atoms: _311  and  _313
REMARK  133  A    between atoms: _313  and  _314
REMARK  134  A    between atoms: _313  and  _316
REMARK  135  A    between atoms: _316  and  _317
REMARK  136  A    between atoms: _321  and  _322
REMARK  137  A    between atoms: _327  and  _329
REMARK  138  A    between atoms: _329  and  _330
REMARK  139  A    between atoms: _329  and  _332
REMARK  140  A    between atoms: _332  and  _333
REMARK  141  A    between atoms: _338  and  _340
REMARK  142  A    between atoms: _340  and  _341
REMARK  143  A    between atoms: _340  and  _343
REMARK  144  A    between atoms: _343  and  _344
REMARK  145  A    between atoms: _347  and  _349
REMARK  146  A    between atoms: _349  and  _350
REMARK  147  A    between atoms: _349  and  _352
REMARK  148  A    between atoms: _352  and  _353
REMARK  149  A    between atoms: _359  and  _361
REMARK  150  A    between atoms: _361  and  _362
REMARK  151  A    between atoms: _361  and  _364
REMARK  152  A    between atoms: _367  and  _369
REMARK  153  A    between atoms: _369  and  _370
REMARK  154  A    between atoms: _369  and  _372
REMARK  155  A    between atoms: _375  and  _377
REMARK  156  A    between atoms: _377  and  _378
REMARK  157  A    between atoms: _380  and  _382
REMARK  158  A    between atoms: _382  and  _383
REMARK  159  A    between atoms: _385  and  _387
REMARK  160  A    between atoms: _387  and  _388
REMARK  161  A    between atoms: _387  and  _390
REMARK  162  A    between atoms: _390  and  _391
REMARK  163  A    between atoms: _394  and  _396
REMARK  164  A    between atoms: _396  and  _397
REMARK  165  A    between atoms: _396  and  _399
REMARK  166  A    between atoms: _399  and  _400
REMARK  167  A    between atoms: _400  and  _402
REMARK  168  A    between atoms: _402  and  MG_565
REMARK  169  A    between atoms: _403  and  _405
REMARK  170  A    between atoms: _405  and  _406
REMARK  171  A    between atoms: _405  and  _408
REMARK  172  A    between atoms: _408  and  _409
REMARK  173  A    between atoms: _414  and  _415
REMARK  174  A    between atoms: _417  and  _419
REMARK  175  A    between atoms: _419  and  _420
REMARK  176  A    between atoms: _419  and  _422
REMARK  177  A    between atoms: _422  and  _423
REMARK  178  A    between atoms: _426  and  _428
REMARK  179  A    between atoms: _428  and  _429
REMARK  180  A    between atoms: _428  and  _431
REMARK  181  A    between atoms: _431  and  _432
REMARK  182  A    between atoms: _432  and  _433
REMARK  183  A    between atoms: _436  and  _438
REMARK  184  A    between atoms: _438  and  _439
REMARK  185  A    between atoms: _438  and  _441
REMARK  186  A    between atoms: _441  and  _442
REMARK  187  A    between atoms: _442  and  _443
REMARK  188  A    between atoms: _443  and  _444
REMARK  189  A    between atoms: _453  and  _455
REMARK  190  A    between atoms: _455  and  _456
REMARK  191  A    between atoms: _455  and  _458
REMARK  192  A    between atoms: _458  and  _459
REMARK  193  A    between atoms: _464  and  _465
REMARK  194  A    between atoms: _467  and  _469
REMARK  195  A    between atoms: _469  and  _470
REMARK  196  A    between atoms: _469  and  _472
REMARK  197  A    between atoms: _472  and  _473
REMARK  198  A    between atoms: _473  and  _474
REMARK  199  A    between atoms: _474  and  _475
REMARK  200  A    between atoms: _484  and  _486
REMARK  201  A    between atoms: _486  and  _487
REMARK  202  A    between atoms: _486  and  _489
REMARK  203  A    between atoms: _489  and  _490
REMARK  204  A    between atoms: _493  and  _495
REMARK  205  A    between atoms: _495  and  _496
REMARK  206  A    between atoms: _498  and  _500
REMARK  207  A    between atoms: _500  and  _501
REMARK  208  A    between atoms: _500  and  _503
REMARK  209  A    between atoms: _503  and  _504
REMARK  210  A    between atoms: _507  and  _509
REMARK  211  A    between atoms: _509  and  _510
REMARK  212  A    between atoms: _509  and  _512
REMARK  213  A    between atoms: _512  and  _513
REMARK  214  A    between atoms: _518  and  _519
REMARK  215  A    between atoms: _521  and  _523
REMARK  216  A    between atoms: _523  and  _524
REMARK  217  A    between atoms: _523  and  _526
REMARK  218  A    between atoms: _526  and  _527
REMARK  219  A    between atoms: _533  and  _535
REMARK  220  A    between atoms: _535  and  _536
REMARK  221  A    between atoms: _535  and  _538
REMARK  222  A    between atoms: _538  and  _539
REMARK  223  A    between atoms: _545  and  _547
REMARK  224  A    between atoms: _547  and  _548
REMARK  225  A    between atoms: _547  and  _550
REMARK  226  A    between atoms: _550  and  _551
REMARK  227  A    between atoms: _554  and  _556
REMARK  228  A    between atoms: _556  and  _557
REMARK  229  A    between atoms: _556  and  _559
REMARK  230  A    between atoms: _559  and  _560
REMARK                            x       y       z     vdW  Elec       q    Type
REMARK                         _______ _______ _______ _____ _____    ______ ____
ROOT
ATOM      1  O   HOH     1      -0.340  12.530 126.149  0.00  0.00    +0.000 OA
ENDROOT
TORSDOF 0
REMARK  Name = ../refined-set-2016/4rhx/4rhx_pocket.pdb
REMARK  230 active torsions:
REMARK  status: ('A' for Active; 'I' for Inactive)
REMARK    1  A    between atoms: _1  and  _3
REMARK    2  A    between atoms: _3  and  _4
REMARK    3  A    between atoms: _3  and  _6
REMARK    4  A    between atoms: _6  and  _7
REMARK    5  A    between atoms: _10  and  _12
REMARK    6  A    between atoms: _12  and  _13
REMARK    7  A    between atoms: _12  and  _15
REMARK    8  A    between atoms: _18  and  _20
REMARK    9  A    between atoms: _20  and  _21
REMARK   10  A    between atoms: _20  and  _23
REMARK   11  A    between atoms: _23  and  _24
REMARK   12  A    between atoms: _27  and  _29
REMARK   13  A    between atoms: _29  and  _30
REMARK   14  A    between atoms: _29  and  _32
REMARK   15  A    between atoms: _32  and  _33
REMARK   16  A    between atoms: _33  and  _34
REMARK   17  A    between atoms: _34  and  _35
REMARK   18  A    between atoms: _35  and  _36
REMARK   19  A    between atoms: _40  and  _42
REMARK   20  A    between atoms: _42  and  _43
REMARK   21  A    between atoms: _45  and  _47
REMARK   22  A    between atoms: _47  and  _48
REMARK   23  A    between atoms: _51  and  _53
REMARK   24  A    between atoms: _53  and  _54
REMARK   25  A    between atoms: _53  and  _56
REMARK   26  A    between atoms: _59  and  _61
REMARK   27  A    between atoms: _61  and  _62
REMARK   28  A    between atoms: _61  and  _64
REMARK   29  A    between atoms: _64  and  _65
REMARK   30  A    between atoms: _65  and  _66
REMARK   31  A    between atoms: _68  and  _70
REMARK   32  A    between atoms: _70  and  _71
REMARK   33  A    between atoms: _74  and  _76
REMARK   34  A    between atoms: _76  and  _77
REMARK   35  A    between atoms: _76  and  _79
REMARK   36  A    between atoms: _82  and  _84
REMARK   37  A    between atoms: _84  and  _85
REMARK   38  A    between atoms: _84  and  _87
REMARK   39  A    between atoms: _87  and  _88
REMARK   40  A    between atoms: _90  and  _92
REMARK   41  A    between atoms: _92  and  _93
REMARK   42  A    between atoms: _92  and  _95
REMARK   43  A    between atoms: _95  and  _96
REMARK   44  A    between atoms: _98  and  _100
REMARK   45  A    between atoms: _100  and  _101
REMARK   46  A    between atoms: _100  and  _103
REMARK   47  A    between atoms: _103  and  _104
REMARK   48  A    between atoms: _109  and  _110
REMARK   49  A    between atoms: _112  and  _114
REMARK   50  A    between atoms: _114  and  _115
REMARK   51  A    between atoms: _117  and  _119
REMARK   52  A    between atoms: _119  and  _120
REMARK   53  A    between atoms: _119  and  _122
REMARK   54  A    between atoms: _125  and  _127
REMARK   55  A    between atoms: _127  and  _128
REMARK   56  A    between atoms: _127  and  _130
REMARK   57  A    between atoms: _130  and  _131
REMARK   58  A    between atoms: _131  and  _132
REMARK   59  A    between atoms: _132  and  _133
REMARK   60  A    between atoms: _142  and  _144
REMARK   61  A    between atoms: _144  and  _145
REMARK   62  A    between atoms: _144  and  _147
REMARK   63  A    between atoms: _147  and  _148
REMARK   64  A    between atoms: _151  and  _153
REMARK   65  A    between atoms: _153  and  _154
REMARK   66  A    between atoms: _153  and  _156
REMARK   67  A    between atoms: _156  and  _157
REMARK   68  A    between atoms: _157  and  _158
REMARK   69  A    between atoms: _161  and  _163
REMARK   70  A    between atoms: _163  and  _164
REMARK   71  A    between atoms: _163  and  _166
REMARK   72  A    between atoms: _166  and  _167
REMARK   73  A    between atoms: _170  and  _172
REMARK   74  A    between atoms: _172  and  _173
REMARK   75  A    between atoms: _172  and  _175
REMARK   76  A    between atoms: _178  and  _180
REMARK   77  A    between atoms: _180  and  _181
REMARK   78  A    between atoms: _180  and  _183
REMARK   79  A    between atoms: _186  and  _188
REMARK   80  A    between atoms: _188  and  _189
REMARK   81  A    between atoms: _188  and  _191
REMARK   82  A    between atoms: _191  and  _192
REMARK   83  A    between atoms: _195  and  _197
REMARK   84  A    between atoms: _197  and  _198
REMARK   85  A    between atoms: _197  and  _200
REMARK   86  A    between atoms: _200  and  _201
REMARK   87  A    between atoms: _203  and  _205
REMARK   88  A    between atoms: _205  and  _206
REMARK   89  A    between atoms: _208  and  _210
REMARK   90  A    between atoms: _210  and  _211
REMARK   91  A    between atoms: _210  and  _213
REMARK   92  A    between atoms: _213  and  _214
REMARK   93  A    between atoms: _217  and  _219
REMARK   94  A    between atoms: _219  and  _220
REMARK   95  A    between atoms: _219  and  _222
REMARK   96  A    between atoms: _222  and  _223
REMARK   97  A    between atoms: _226  and  _228
REMARK   98  A    between atoms: _228  and  _229
REMARK   99  A    between atoms: _228  and  _231
REMARK  100  A    between atoms: _231  and  _232
REMARK  101  A    between atoms: _235  and  _237
REMARK  102  A    between atoms: _237  and  _238
REMARK  103  A    between atoms: _237  and  _240
REMARK  104  A    between atoms: _240  and  _241
REMARK  105  A    between atoms: _243  and  _245
REMARK  106  A    between atoms: _245  and  _246
REMARK  107  A    between atoms: _245  and  _248
REMARK  108  A    between atoms: _248  and  _249
REMARK  109  A    between atoms: _259  and  _261
REMARK  110  A    between atoms: _261  and  _262
REMARK  111  A    between atoms: _261  and  _264
REMARK  112  A    between atoms: _264  and  _265
REMARK  113  A    between atoms: _268  and  _270
REMARK  114  A    between atoms: _270  and  _271
REMARK  115  A    between atoms: _270  and  _273
REMARK  116  A    between atoms: _273  and  _274
REMARK  117  A    between atoms: _277  and  _279
REMARK  118  A    between atoms: _279  and  _280
REMARK  119  A    between atoms: _279  and  _282
REMARK  120  A    between atoms: _282  and  _283
REMARK  121  A    between atoms: _283  and  _284
REMARK  122  A    between atoms: _284  and  _285
REMARK  123  A    between atoms: _285  and  _286
REMARK  124  A    between atoms: _290  and  _292
REMARK  125  A    between atoms: _292  and  _293
REMARK  126  A    between atoms: _292  and  _295
REMARK  127  A    between atoms: _295  and  _296
REMARK  128  A    between atoms: _299  and  _301
REMARK  129  A    between atoms: _301  and  _302
REMARK  130  A    between atoms: _305  and  _307
REMARK  131  A    between atoms: _307  and  _308
REMARK  132  A    between atoms: _311  and  _313
REMARK  133  A    between atoms: _313  and  _314
REMARK  134  A    between atoms: _313  and  _316
REMARK  135  A    between atoms: _316  and  _317
REMARK  136  A    between atoms: _321  and  _322
REMARK  137  A    between atoms: _327  and  _329
REMARK  138  A    between atoms: _329  and  _330
REMARK  139  A    between atoms: _329  and  _332
REMARK  140  A    between atoms: _332  and  _333
REMARK  141  A    between atoms: _338  and  _340
REMARK  142  A    between atoms: _340  and  _341
REMARK  143  A    between atoms: _340  and  _343
REMARK  144  A    between atoms: _343  and  _344
REMARK  145  A    between atoms: _347  and  _349
REMARK  146  A    between atoms: _349  and  _350
REMARK  147  A    between atoms: _349  and  _352
REMARK  148  A    between atoms: _352  and  _353
REMARK  149  A    between atoms: _359  and  _361
REMARK  150  A    between atoms: _361  and  _362
REMARK  151  A    between atoms: _361  and  _364
REMARK  152  A    between atoms: _367  and  _369
REMARK  153  A    between atoms: _369  and  _370
REMARK  154  A    between atoms: _369  and  _372
REMARK  155  A    between atoms: _375  and  _377
REMARK  156  A    between atoms: _377  and  _378
REMARK  157  A    between atoms: _380  and  _382
REMARK  158  A    between atoms: _382  and  _383
REMARK  159  A    between atoms: _385  and  _387
REMARK  160  A    between atoms: _387  and  _388
REMARK  161  A    between atoms: _387  and  _390
REMARK  162  A    between atoms: _390  and  _391
REMARK  163  A    between atoms: _394  and  _396
REMARK  164  A    between atoms: _396  and  _397
REMARK  165  A    between atoms: _396  and  _399
REMARK  166  A    between atoms: _399  and  _400
REMARK  167  A    between atoms: _400  and  _402
REMARK  168  A    between atoms: _402  and  MG_565
REMARK  169  A    between atoms: _403  and  _405
REMARK  170  A    between atoms: _405  and  _406
REMARK  171  A    between atoms: _405  and  _408
REMARK  172  A    between atoms: _408  and  _409
REMARK  173  A    between atoms: _414  and  _415
REMARK  174  A    between atoms: _417  and  _419
REMARK  175  A    between atoms: _419  and  _420
REMARK  176  A    between atoms: _419  and  _422
REMARK  177  A    between atoms: _422  and  _423
REMARK  178  A    between atoms: _426  and  _428
REMARK  179  A    between atoms: _428  and  _429
REMARK  180  A    between atoms: _428  and  _431
REMARK  181  A    between atoms: _431  and  _432
REMARK  182  A    between atoms: _432  and  _433
REMARK  183  A    between atoms: _436  and  _438
REMARK  184  A    between atoms: _438  and  _439
REMARK  185  A    between atoms: _438  and  _441
REMARK  186  A    between atoms: _441  and  _442
REMARK  187  A    between atoms: _442  and  _443
REMARK  188  A    between atoms: _443  and  _444
REMARK  189  A    between atoms: _453  and  _455
REMARK  190  A    between atoms: _455  and  _456
REMARK  191  A    between atoms: _455  and  _458
REMARK  192  A    between atoms: _458  and  _459
REMARK  193  A    between atoms: _464  and  _465
REMARK  194  A    between atoms: _467  and  _469
REMARK  195  A    between atoms: _469  and  _470
REMARK  196  A    between atoms: _469  and  _472
REMARK  197  A    between atoms: _472  and  _473
REMARK  198  A    between atoms: _473  and  _474
REMARK  199  A    between atoms: _474  and  _475
REMARK  200  A    between atoms: _484  and  _486
REMARK  201  A    between atoms: _486  and  _487
REMARK  202  A    between atoms: _486  and  _489
REMARK  203  A    between atoms: _489  and  _490
REMARK  204  A    between atoms: _493  and  _495
REMARK  205  A    between atoms: _495  and  _496
REMARK  206  A    between atoms: _498  and  _500
REMARK  207  A    between atoms: _500  and  _501
REMARK  208  A    between atoms: _500  and  _503
REMARK  209  A    between atoms: _503  and  _504
REMARK  210  A    between atoms: _507  and  _509
REMARK  211  A    between atoms: _509  and  _510
REMARK  212  A    between atoms: _509  and  _512
REMARK  213  A    between atoms: _512  and  _513
REMARK  214  A    between atoms: _518  and  _519
REMARK  215  A    between atoms: _521  and  _523
REMARK  216  A    between atoms: _523  and  _524
REMARK  217  A    between atoms: _523  and  _526
REMARK  218  A    between atoms: _526  and  _527
REMARK  219  A    between atoms: _533  and  _535
REMARK  220  A    between atoms: _535  and  _536
REMARK  221  A    between atoms: _535  and  _538
REMARK  222  A    between atoms: _538  and  _539
REMARK  223  A    between atoms: _545  and  _547
REMARK  224  A    between atoms: _547  and  _548
REMARK  225  A    between atoms: _547  and  _550
REMARK  226  A    between atoms: _550  and  _551
REMARK  227  A    between atoms: _554  and  _556
REMARK  228  A    between atoms: _556  and  _557
REMARK  229  A    between atoms: _556  and  _559
REMARK  230  A    between atoms: _559  and  _560
REMARK                            x       y       z     vdW  Elec       q    Type
REMARK                         _______ _______ _______ _____ _____    ______ ____
ROOT
ATOM      1  O   HOH     1      -2.204   3.004 117.840  0.00  0.00    +0.000 OA
ENDROOT
TORSDOF 0
REMARK  Name = ../refined-set-2016/4rhx/4rhx_pocket.pdb
REMARK  230 active torsions:
REMARK  status: ('A' for Active; 'I' for Inactive)
REMARK    1  A    between atoms: _1  and  _3
REMARK    2  A    between atoms: _3  and  _4
REMARK    3  A    between atoms: _3  and  _6
REMARK    4  A    between atoms: _6  and  _7
REMARK    5  A    between atoms: _10  and  _12
REMARK    6  A    between atoms: _12  and  _13
REMARK    7  A    between atoms: _12  and  _15
REMARK    8  A    between atoms: _18  and  _20
REMARK    9  A    between atoms: _20  and  _21
REMARK   10  A    between atoms: _20  and  _23
REMARK   11  A    between atoms: _23  and  _24
REMARK   12  A    between atoms: _27  and  _29
REMARK   13  A    between atoms: _29  and  _30
REMARK   14  A    between atoms: _29  and  _32
REMARK   15  A    between atoms: _32  and  _33
REMARK   16  A    between atoms: _33  and  _34
REMARK   17  A    between atoms: _34  and  _35
REMARK   18  A    between atoms: _35  and  _36
REMARK   19  A    between atoms: _40  and  _42
REMARK   20  A    between atoms: _42  and  _43
REMARK   21  A    between atoms: _45  and  _47
REMARK   22  A    between atoms: _47  and  _48
REMARK   23  A    between atoms: _51  and  _53
REMARK   24  A    between atoms: _53  and  _54
REMARK   25  A    between atoms: _53  and  _56
REMARK   26  A    between atoms: _59  and  _61
REMARK   27  A    between atoms: _61  and  _62
REMARK   28  A    between atoms: _61  and  _64
REMARK   29  A    between atoms: _64  and  _65
REMARK   30  A    between atoms: _65  and  _66
REMARK   31  A    between atoms: _68  and  _70
REMARK   32  A    between atoms: _70  and  _71
REMARK   33  A    between atoms: _74  and  _76
REMARK   34  A    between atoms: _76  and  _77
REMARK   35  A    between atoms: _76  and  _79
REMARK   36  A    between atoms: _82  and  _84
REMARK   37  A    between atoms: _84  and  _85
REMARK   38  A    between atoms: _84  and  _87
REMARK   39  A    between atoms: _87  and  _88
REMARK   40  A    between atoms: _90  and  _92
REMARK   41  A    between atoms: _92  and  _93
REMARK   42  A    between atoms: _92  and  _95
REMARK   43  A    between atoms: _95  and  _96
REMARK   44  A    between atoms: _98  and  _100
REMARK   45  A    between atoms: _100  and  _101
REMARK   46  A    between atoms: _100  and  _103
REMARK   47  A    between atoms: _103  and  _104
REMARK   48  A    between atoms: _109  and  _110
REMARK   49  A    between atoms: _112  and  _114
REMARK   50  A    between atoms: _114  and  _115
REMARK   51  A    between atoms: _117  and  _119
REMARK   52  A    between atoms: _119  and  _120
REMARK   53  A    between atoms: _119  and  _122
REMARK   54  A    between atoms: _125  and  _127
REMARK   55  A    between atoms: _127  and  _128
REMARK   56  A    between atoms: _127  and  _130
REMARK   57  A    between atoms: _130  and  _131
REMARK   58  A    between atoms: _131  and  _132
REMARK   59  A    between atoms: _132  and  _133
REMARK   60  A    between atoms: _142  and  _144
REMARK   61  A    between atoms: _144  and  _145
REMARK   62  A    between atoms: _144  and  _147
REMARK   63  A    between atoms: _147  and  _148
REMARK   64  A    between atoms: _151  and  _153
REMARK   65  A    between atoms: _153  and  _154
REMARK   66  A    between atoms: _153  and  _156
REMARK   67  A    between atoms: _156  and  _157
REMARK   68  A    between atoms: _157  and  _158
REMARK   69  A    between atoms: _161  and  _163
REMARK   70  A    between atoms: _163  and  _164
REMARK   71  A    between atoms: _163  and  _166
REMARK   72  A    between atoms: _166  and  _167
REMARK   73  A    between atoms: _170  and  _172
REMARK   74  A    between atoms: _172  and  _173
REMARK   75  A    between atoms: _172  and  _175
REMARK   76  A    between atoms: _178  and  _180
REMARK   77  A    between atoms: _180  and  _181
REMARK   78  A    between atoms: _180  and  _183
REMARK   79  A    between atoms: _186  and  _188
REMARK   80  A    between atoms: _188  and  _189
REMARK   81  A    between atoms: _188  and  _191
REMARK   82  A    between atoms: _191  and  _192
REMARK   83  A    between atoms: _195  and  _197
REMARK   84  A    between atoms: _197  and  _198
REMARK   85  A    between atoms: _197  and  _200
REMARK   86  A    between atoms: _200  and  _201
REMARK   87  A    between atoms: _203  and  _205
REMARK   88  A    between atoms: _205  and  _206
REMARK   89  A    between atoms: _208  and  _210
REMARK   90  A    between atoms: _210  and  _211
REMARK   91  A    between atoms: _210  and  _213
REMARK   92  A    between atoms: _213  and  _214
REMARK   93  A    between atoms: _217  and  _219
REMARK   94  A    between atoms: _219  and  _220
REMARK   95  A    between atoms: _219  and  _222
REMARK   96  A    between atoms: _222  and  _223
REMARK   97  A    between atoms: _226  and  _228
REMARK   98  A    between atoms: _228  and  _229
REMARK   99  A    between atoms: _228  and  _231
REMARK  100  A    between atoms: _231  and  _232
REMARK  101  A    between atoms: _235  and  _237
REMARK  102  A    between atoms: _237  and  _238
REMARK  103  A    between atoms: _237  and  _240
REMARK  104  A    between atoms: _240  and  _241
REMARK  105  A    between atoms: _243  and  _245
REMARK  106  A    between atoms: _245  and  _246
REMARK  107  A    between atoms: _245  and  _248
REMARK  108  A    between atoms: _248  and  _249
REMARK  109  A    between atoms: _259  and  _261
REMARK  110  A    between atoms: _261  and  _262
REMARK  111  A    between atoms: _261  and  _264
REMARK  112  A    between atoms: _264  and  _265
REMARK  113  A    between atoms: _268  and  _270
REMARK  114  A    between atoms: _270  and  _271
REMARK  115  A    between atoms: _270  and  _273
REMARK  116  A    between atoms: _273  and  _274
REMARK  117  A    between atoms: _277  and  _279
REMARK  118  A    between atoms: _279  and  _280
REMARK  119  A    between atoms: _279  and  _282
REMARK  120  A    between atoms: _282  and  _283
REMARK  121  A    between atoms: _283  and  _284
REMARK  122  A    between atoms: _284  and  _285
REMARK  123  A    between atoms: _285  and  _286
REMARK  124  A    between atoms: _290  and  _292
REMARK  125  A    between atoms: _292  and  _293
REMARK  126  A    between atoms: _292  and  _295
REMARK  127  A    between atoms: _295  and  _296
REMARK  128  A    between atoms: _299  and  _301
REMARK  129  A    between atoms: _301  and  _302
REMARK  130  A    between atoms: _305  and  _307
REMARK  131  A    between atoms: _307  and  _308
REMARK  132  A    between atoms: _311  and  _313
REMARK  133  A    between atoms: _313  and  _314
REMARK  134  A    between atoms: _313  and  _316
REMARK  135  A    between atoms: _316  and  _317
REMARK  136  A    between atoms: _321  and  _322
REMARK  137  A    between atoms: _327  and  _329
REMARK  138  A    between atoms: _329  and  _330
REMARK  139  A    between atoms: _329  and  _332
REMARK  140  A    between atoms: _332  and  _333
REMARK  141  A    between atoms: _338  and  _340
REMARK  142  A    between atoms: _340  and  _341
REMARK  143  A    between atoms: _340  and  _343
REMARK  144  A    between atoms: _343  and  _344
REMARK  145  A    between atoms: _347  and  _349
REMARK  146  A    between atoms: _349  and  _350
REMARK  147  A    between atoms: _349  and  _352
REMARK  148  A    between atoms: _352  and  _353
REMARK  149  A    between atoms: _359  and  _361
REMARK  150  A    between atoms: _361  and  _362
REMARK  151  A    between atoms: _361  and  _364
REMARK  152  A    between atoms: _367  and  _369
REMARK  153  A    between atoms: _369  and  _370
REMARK  154  A    between atoms: _369  and  _372
REMARK  155  A    between atoms: _375  and  _377
REMARK  156  A    between atoms: _377  and  _378
REMARK  157  A    between atoms: _380  and  _382
REMARK  158  A    between atoms: _382  and  _383
REMARK  159  A    between atoms: _385  and  _387
REMARK  160  A    between atoms: _387  and  _388
REMARK  161  A    between atoms: _387  and  _390
REMARK  162  A    between atoms: _390  and  _391
REMARK  163  A    between atoms: _394  and  _396
REMARK  164  A    between atoms: _396  and  _397
REMARK  165  A    between atoms: _396  and  _399
REMARK  166  A    between atoms: _399  and  _400
REMARK  167  A    between atoms: _400  and  _402
REMARK  168  A    between atoms: _402  and  MG_565
REMARK  169  A    between atoms: _403  and  _405
REMARK  170  A    between atoms: _405  and  _406
REMARK  171  A    between atoms: _405  and  _408
REMARK  172  A    between atoms: _408  and  _409
REMARK  173  A    between atoms: _414  and  _415
REMARK  174  A    between atoms: _417  and  _419
REMARK  175  A    between atoms: _419  and  _420
REMARK  176  A    between atoms: _419  and  _422
REMARK  177  A    between atoms: _422  and  _423
REMARK  178  A    between atoms: _426  and  _428
REMARK  179  A    between atoms: _428  and  _429
REMARK  180  A    between atoms: _428  and  _431
REMARK  181  A    between atoms: _431  and  _432
REMARK  182  A    between atoms: _432  and  _433
REMARK  183  A    between atoms: _436  and  _438
REMARK  184  A    between atoms: _438  and  _439
REMARK  185  A    between atoms: _438  and  _441
REMARK  186  A    between atoms: _441  and  _442
REMARK  187  A    between atoms: _442  and  _443
REMARK  188  A    between atoms: _443  and  _444
REMARK  189  A    between atoms: _453  and  _455
REMARK  190  A    between atoms: _455  and  _456
REMARK  191  A    between atoms: _455  and  _458
REMARK  192  A    between atoms: _458  and  _459
REMARK  193  A    between atoms: _464  and  _465
REMARK  194  A    between atoms: _467  and  _469
REMARK  195  A    between atoms: _469  and  _470
REMARK  196  A    between atoms: _469  and  _472
REMARK  197  A    between atoms: _472  and  _473
REMARK  198  A    between atoms: _473  and  _474
REMARK  199  A    between atoms: _474  and  _475
REMARK  200  A    between atoms: _484  and  _486
REMARK  201  A    between atoms: _486  and  _487
REMARK  202  A    between atoms: _486  and  _489
REMARK  203  A    between atoms: _489  and  _490
REMARK  204  A    between atoms: _493  and  _495
REMARK  205  A    between atoms: _495  and  _496
REMARK  206  A    between atoms: _498  and  _500
REMARK  207  A    between atoms: _500  and  _501
REMARK  208  A    between atoms: _500  and  _503
REMARK  209  A    between atoms: _503  and  _504
REMARK  210  A    between atoms: _507  and  _509
REMARK  211  A    between atoms: _509  and  _510
REMARK  212  A    between atoms: _509  and  _512
REMARK  213  A    between atoms: _512  and  _513
REMARK  214  A    between atoms: _518  and  _519
REMARK  215  A    between atoms: _521  and  _523
REMARK  216  A    between atoms: _523  and  _524
REMARK  217  A    between atoms: _523  and  _526
REMARK  218  A    between atoms: _526  and  _527
REMARK  219  A    between atoms: _533  and  _535
REMARK  220  A    between atoms: _535  and  _536
REMARK  221  A    between atoms: _535  and  _538
REMARK  222  A    between atoms: _538  and  _539
REMARK  223  A    between atoms: _545  and  _547
REMARK  224  A    between atoms: _547  and  _548
REMARK  225  A    between atoms: _547  and  _550
REMARK  226  A    between atoms: _550  and  _551
REMARK  227  A    between atoms: _554  and  _556
REMARK  228  A    between atoms: _556  and  _557
REMARK  229  A    between atoms: _556  and  _559
REMARK  230  A    between atoms: _559  and  _560
REMARK                            x       y       z     vdW  Elec       q    Type
REMARK                         _______ _______ _______ _____ _____    ______ ____
ROOT
ATOM      1  O   HOH     1      -0.858  19.488 120.343  0.00  0.00    +0.000 OA
ENDROOT
TORSDOF 0
REMARK  Name = ../refined-set-2016/4rhx/4rhx_pocket.pdb
REMARK  230 active torsions:
REMARK  status: ('A' for Active; 'I' for Inactive)
REMARK    1  A    between atoms: _1  and  _3
REMARK    2  A    between atoms: _3  and  _4
REMARK    3  A    between atoms: _3  and  _6
REMARK    4  A    between atoms: _6  and  _7
REMARK    5  A    between atoms: _10  and  _12
REMARK    6  A    between atoms: _12  and  _13
REMARK    7  A    between atoms: _12  and  _15
REMARK    8  A    between atoms: _18  and  _20
REMARK    9  A    between atoms: _20  and  _21
REMARK   10  A    between atoms: _20  and  _23
REMARK   11  A    between atoms: _23  and  _24
REMARK   12  A    between atoms: _27  and  _29
REMARK   13  A    between atoms: _29  and  _30
REMARK   14  A    between atoms: _29  and  _32
REMARK   15  A    between atoms: _32  and  _33
REMARK   16  A    between atoms: _33  and  _34
REMARK   17  A    between atoms: _34  and  _35
REMARK   18  A    between atoms: _35  and  _36
REMARK   19  A    between atoms: _40  and  _42
REMARK   20  A    between atoms: _42  and  _43
REMARK   21  A    between atoms: _45  and  _47
REMARK   22  A    between atoms: _47  and  _48
REMARK   23  A    between atoms: _51  and  _53
REMARK   24  A    between atoms: _53  and  _54
REMARK   25  A    between atoms: _53  and  _56
REMARK   26  A    between atoms: _59  and  _61
REMARK   27  A    between atoms: _61  and  _62
REMARK   28  A    between atoms: _61  and  _64
REMARK   29  A    between atoms: _64  and  _65
REMARK   30  A    between atoms: _65  and  _66
REMARK   31  A    between atoms: _68  and  _70
REMARK   32  A    between atoms: _70  and  _71
REMARK   33  A    between atoms: _74  and  _76
REMARK   34  A    between atoms: _76  and  _77
REMARK   35  A    between atoms: _76  and  _79
REMARK   36  A    between atoms: _82  and  _84
REMARK   37  A    between atoms: _84  and  _85
REMARK   38  A    between atoms: _84  and  _87
REMARK   39  A    between atoms: _87  and  _88
REMARK   40  A    between atoms: _90  and  _92
REMARK   41  A    between atoms: _92  and  _93
REMARK   42  A    between atoms: _92  and  _95
REMARK   43  A    between atoms: _95  and  _96
REMARK   44  A    between atoms: _98  and  _100
REMARK   45  A    between atoms: _100  and  _101
REMARK   46  A    between atoms: _100  and  _103
REMARK   47  A    between atoms: _103  and  _104
REMARK   48  A    between atoms: _109  and  _110
REMARK   49  A    between atoms: _112  and  _114
REMARK   50  A    between atoms: _114  and  _115
REMARK   51  A    between atoms: _117  and  _119
REMARK   52  A    between atoms: _119  and  _120
REMARK   53  A    between atoms: _119  and  _122
REMARK   54  A    between atoms: _125  and  _127
REMARK   55  A    between atoms: _127  and  _128
REMARK   56  A    between atoms: _127  and  _130
REMARK   57  A    between atoms: _130  and  _131
REMARK   58  A    between atoms: _131  and  _132
REMARK   59  A    between atoms: _132  and  _133
REMARK   60  A    between atoms: _142  and  _144
REMARK   61  A    between atoms: _144  and  _145
REMARK   62  A    between atoms: _144  and  _147
REMARK   63  A    between atoms: _147  and  _148
REMARK   64  A    between atoms: _151  and  _153
REMARK   65  A    between atoms: _153  and  _154
REMARK   66  A    between atoms: _153  and  _156
REMARK   67  A    between atoms: _156  and  _157
REMARK   68  A    between atoms: _157  and  _158
REMARK   69  A    between atoms: _161  and  _163
REMARK   70  A    between atoms: _163  and  _164
REMARK   71  A    between atoms: _163  and  _166
REMARK   72  A    between atoms: _166  and  _167
REMARK   73  A    between atoms: _170  and  _172
REMARK   74  A    between atoms: _172  and  _173
REMARK   75  A    between atoms: _172  and  _175
REMARK   76  A    between atoms: _178  and  _180
REMARK   77  A    between atoms: _180  and  _181
REMARK   78  A    between atoms: _180  and  _183
REMARK   79  A    between atoms: _186  and  _188
REMARK   80  A    between atoms: _188  and  _189
REMARK   81  A    between atoms: _188  and  _191
REMARK   82  A    between atoms: _191  and  _192
REMARK   83  A    between atoms: _195  and  _197
REMARK   84  A    between atoms: _197  and  _198
REMARK   85  A    between atoms: _197  and  _200
REMARK   86  A    between atoms: _200  and  _201
REMARK   87  A    between atoms: _203  and  _205
REMARK   88  A    between atoms: _205  and  _206
REMARK   89  A    between atoms: _208  and  _210
REMARK   90  A    between atoms: _210  and  _211
REMARK   91  A    between atoms: _210  and  _213
REMARK   92  A    between atoms: _213  and  _214
REMARK   93  A    between atoms: _217  and  _219
REMARK   94  A    between atoms: _219  and  _220
REMARK   95  A    between atoms: _219  and  _222
REMARK   96  A    between atoms: _222  and  _223
REMARK   97  A    between atoms: _226  and  _228
REMARK   98  A    between atoms: _228  and  _229
REMARK   99  A    between atoms: _228  and  _231
REMARK  100  A    between atoms: _231  and  _232
REMARK  101  A    between atoms: _235  and  _237
REMARK  102  A    between atoms: _237  and  _238
REMARK  103  A    between atoms: _237  and  _240
REMARK  104  A    between atoms: _240  and  _241
REMARK  105  A    between atoms: _243  and  _245
REMARK  106  A    between atoms: _245  and  _246
REMARK  107  A    between atoms: _245  and  _248
REMARK  108  A    between atoms: _248  and  _249
REMARK  109  A    between atoms: _259  and  _261
REMARK  110  A    between atoms: _261  and  _262
REMARK  111  A    between atoms: _261  and  _264
REMARK  112  A    between atoms: _264  and  _265
REMARK  113  A    between atoms: _268  and  _270
REMARK  114  A    between atoms: _270  and  _271
REMARK  115  A    between atoms: _270  and  _273
REMARK  116  A    between atoms: _273  and  _274
REMARK  117  A    between atoms: _277  and  _279
REMARK  118  A    between atoms: _279  and  _280
REMARK  119  A    between atoms: _279  and  _282
REMARK  120  A    between atoms: _282  and  _283
REMARK  121  A    between atoms: _283  and  _284
REMARK  122  A    between atoms: _284  and  _285
REMARK  123  A    between atoms: _285  and  _286
REMARK  124  A    between atoms: _290  and  _292
REMARK  125  A    between atoms: _292  and  _293
REMARK  126  A    between atoms: _292  and  _295
REMARK  127  A    between atoms: _295  and  _296
REMARK  128  A    between atoms: _299  and  _301
REMARK  129  A    between atoms: _301  and  _302
REMARK  130  A    between atoms: _305  and  _307
REMARK  131  A    between atoms: _307  and  _308
REMARK  132  A    between atoms: _311  and  _313
REMARK  133  A    between atoms: _313  and  _314
REMARK  134  A    between atoms: _313  and  _316
REMARK  135  A    between atoms: _316  and  _317
REMARK  136  A    between atoms: _321  and  _322
REMARK  137  A    between atoms: _327  and  _329
REMARK  138  A    between atoms: _329  and  _330
REMARK  139  A    between atoms: _329  and  _332
REMARK  140  A    between atoms: _332  and  _333
REMARK  141  A    between atoms: _338  and  _340
REMARK  142  A    between atoms: _340  and  _341
REMARK  143  A    between atoms: _340  and  _343
REMARK  144  A    between atoms: _343  and  _344
REMARK  145  A    between atoms: _347  and  _349
REMARK  146  A    between atoms: _349  and  _350
REMARK  147  A    between atoms: _349  and  _352
REMARK  148  A    between atoms: _352  and  _353
REMARK  149  A    between atoms: _359  and  _361
REMARK  150  A    between atoms: _361  and  _362
REMARK  151  A    between atoms: _361  and  _364
REMARK  152  A    between atoms: _367  and  _369
REMARK  153  A    between atoms: _369  and  _370
REMARK  154  A    between atoms: _369  and  _372
REMARK  155  A    between atoms: _375  and  _377
REMARK  156  A    between atoms: _377  and  _378
REMARK  157  A    between atoms: _380  and  _382
REMARK  158  A    between atoms: _382  and  _383
REMARK  159  A    between atoms: _385  and  _387
REMARK  160  A    between atoms: _387  and  _388
REMARK  161  A    between atoms: _387  and  _390
REMARK  162  A    between atoms: _390  and  _391
REMARK  163  A    between atoms: _394  and  _396
REMARK  164  A    between atoms: _396  and  _397
REMARK  165  A    between atoms: _396  and  _399
REMARK  166  A    between atoms: _399  and  _400
REMARK  167  A    between atoms: _400  and  _402
REMARK  168  A    between atoms: _402  and  MG_565
REMARK  169  A    between atoms: _403  and  _405
REMARK  170  A    between atoms: _405  and  _406
REMARK  171  A    between atoms: _405  and  _408
REMARK  172  A    between atoms: _408  and  _409
REMARK  173  A    between atoms: _414  and  _415
REMARK  174  A    between atoms: _417  and  _419
REMARK  175  A    between atoms: _419  and  _420
REMARK  176  A    between atoms: _419  and  _422
REMARK  177  A    between atoms: _422  and  _423
REMARK  178  A    between atoms: _426  and  _428
REMARK  179  A    between atoms: _428  and  _429
REMARK  180  A    between atoms: _428  and  _431
REMARK  181  A    between atoms: _431  and  _432
REMARK  182  A    between atoms: _432  and  _433
REMARK  183  A    between atoms: _436  and  _438
REMARK  184  A    between atoms: _438  and  _439
REMARK  185  A    between atoms: _438  and  _441
REMARK  186  A    between atoms: _441  and  _442
REMARK  187  A    between atoms: _442  and  _443
REMARK  188  A    between atoms: _443  and  _444
REMARK  189  A    between atoms: _453  and  _455
REMARK  190  A    between atoms: _455  and  _456
REMARK  191  A    between atoms: _455  and  _458
REMARK  192  A    between atoms: _458  and  _459
REMARK  193  A    between atoms: _464  and  _465
REMARK  194  A    between atoms: _467  and  _469
REMARK  195  A    between atoms: _469  and  _470
REMARK  196  A    between atoms: _469  and  _472
REMARK  197  A    between atoms: _472  and  _473
REMARK  198  A    between atoms: _473  and  _474
REMARK  199  A    between atoms: _474  and  _475
REMARK  200  A    between atoms: _484  and  _486
REMARK  201  A    between atoms: _486  and  _487
REMARK  202  A    between atoms: _486  and  _489
REMARK  203  A    between atoms: _489  and  _490
REMARK  204  A    between atoms: _493  and  _495
REMARK  205  A    between atoms: _495  and  _496
REMARK  206  A    between atoms: _498  and  _500
REMARK  207  A    between atoms: _500  and  _501
REMARK  208  A    between atoms: _500  and  _503
REMARK  209  A    between atoms: _503  and  _504
REMARK  210  A    between atoms: _507  and  _509
REMARK  211  A    between atoms: _509  and  _510
REMARK  212  A    between atoms: _509  and  _512
REMARK  213  A    between atoms: _512  and  _513
REMARK  214  A    between atoms: _518  and  _519
REMARK  215  A    between atoms: _521  and  _523
REMARK  216  A    between atoms: _523  and  _524
REMARK  217  A    between atoms: _523  and  _526
REMARK  218  A    between atoms: _526  and  _527
REMARK  219  A    between atoms: _533  and  _535
REMARK  220  A    between atoms: _535  and  _536
REMARK  221  A    between atoms: _535  and  _538
REMARK  222  A    between atoms: _538  and  _539
REMARK  223  A    between atoms: _545  and  _547
REMARK  224  A    between atoms: _547  and  _548
REMARK  225  A    between atoms: _547  and  _550
REMARK  226  A    between atoms: _550  and  _551
REMARK  227  A    between atoms: _554  and  _556
REMARK  228  A    between atoms: _556  and  _557
REMARK  229  A    between atoms: _556  and  _559
REMARK  230  A    between atoms: _559  and  _560
REMARK                            x       y       z     vdW  Elec       q    Type
REMARK                         _______ _______ _______ _____ _____    ______ ____
ROOT
ATOM      1  O   HOH     1      -1.070  19.622 123.161  0.00  0.00    +0.000 OA
ENDROOT
TORSDOF 0
REMARK  Name = ../refined-set-2016/4rhx/4rhx_pocket.pdb
REMARK  230 active torsions:
REMARK  status: ('A' for Active; 'I' for Inactive)
REMARK    1  A    between atoms: _1  and  _3
REMARK    2  A    between atoms: _3  and  _4
REMARK    3  A    between atoms: _3  and  _6
REMARK    4  A    between atoms: _6  and  _7
REMARK    5  A    between atoms: _10  and  _12
REMARK    6  A    between atoms: _12  and  _13
REMARK    7  A    between atoms: _12  and  _15
REMARK    8  A    between atoms: _18  and  _20
REMARK    9  A    between atoms: _20  and  _21
REMARK   10  A    between atoms: _20  and  _23
REMARK   11  A    between atoms: _23  and  _24
REMARK   12  A    between atoms: _27  and  _29
REMARK   13  A    between atoms: _29  and  _30
REMARK   14  A    between atoms: _29  and  _32
REMARK   15  A    between atoms: _32  and  _33
REMARK   16  A    between atoms: _33  and  _34
REMARK   17  A    between atoms: _34  and  _35
REMARK   18  A    between atoms: _35  and  _36
REMARK   19  A    between atoms: _40  and  _42
REMARK   20  A    between atoms: _42  and  _43
REMARK   21  A    between atoms: _45  and  _47
REMARK   22  A    between atoms: _47  and  _48
REMARK   23  A    between atoms: _51  and  _53
REMARK   24  A    between atoms: _53  and  _54
REMARK   25  A    between atoms: _53  and  _56
REMARK   26  A    between atoms: _59  and  _61
REMARK   27  A    between atoms: _61  and  _62
REMARK   28  A    between atoms: _61  and  _64
REMARK   29  A    between atoms: _64  and  _65
REMARK   30  A    between atoms: _65  and  _66
REMARK   31  A    between atoms: _68  and  _70
REMARK   32  A    between atoms: _70  and  _71
REMARK   33  A    between atoms: _74  and  _76
REMARK   34  A    between atoms: _76  and  _77
REMARK   35  A    between atoms: _76  and  _79
REMARK   36  A    between atoms: _82  and  _84
REMARK   37  A    between atoms: _84  and  _85
REMARK   38  A    between atoms: _84  and  _87
REMARK   39  A    between atoms: _87  and  _88
REMARK   40  A    between atoms: _90  and  _92
REMARK   41  A    between atoms: _92  and  _93
REMARK   42  A    between atoms: _92  and  _95
REMARK   43  A    between atoms: _95  and  _96
REMARK   44  A    between atoms: _98  and  _100
REMARK   45  A    between atoms: _100  and  _101
REMARK   46  A    between atoms: _100  and  _103
REMARK   47  A    between atoms: _103  and  _104
REMARK   48  A    between atoms: _109  and  _110
REMARK   49  A    between atoms: _112  and  _114
REMARK   50  A    between atoms: _114  and  _115
REMARK   51  A    between atoms: _117  and  _119
REMARK   52  A    between atoms: _119  and  _120
REMARK   53  A    between atoms: _119  and  _122
REMARK   54  A    between atoms: _125  and  _127
REMARK   55  A    between atoms: _127  and  _128
REMARK   56  A    between atoms: _127  and  _130
REMARK   57  A    between atoms: _130  and  _131
REMARK   58  A    between atoms: _131  and  _132
REMARK   59  A    between atoms: _132  and  _133
REMARK   60  A    between atoms: _142  and  _144
REMARK   61  A    between atoms: _144  and  _145
REMARK   62  A    between atoms: _144  and  _147
REMARK   63  A    between atoms: _147  and  _148
REMARK   64  A    between atoms: _151  and  _153
REMARK   65  A    between atoms: _153  and  _154
REMARK   66  A    between atoms: _153  and  _156
REMARK   67  A    between atoms: _156  and  _157
REMARK   68  A    between atoms: _157  and  _158
REMARK   69  A    between atoms: _161  and  _163
REMARK   70  A    between atoms: _163  and  _164
REMARK   71  A    between atoms: _163  and  _166
REMARK   72  A    between atoms: _166  and  _167
REMARK   73  A    between atoms: _170  and  _172
REMARK   74  A    between atoms: _172  and  _173
REMARK   75  A    between atoms: _172  and  _175
REMARK   76  A    between atoms: _178  and  _180
REMARK   77  A    between atoms: _180  and  _181
REMARK   78  A    between atoms: _180  and  _183
REMARK   79  A    between atoms: _186  and  _188
REMARK   80  A    between atoms: _188  and  _189
REMARK   81  A    between atoms: _188  and  _191
REMARK   82  A    between atoms: _191  and  _192
REMARK   83  A    between atoms: _195  and  _197
REMARK   84  A    between atoms: _197  and  _198
REMARK   85  A    between atoms: _197  and  _200
REMARK   86  A    between atoms: _200  and  _201
REMARK   87  A    between atoms: _203  and  _205
REMARK   88  A    between atoms: _205  and  _206
REMARK   89  A    between atoms: _208  and  _210
REMARK   90  A    between atoms: _210  and  _211
REMARK   91  A    between atoms: _210  and  _213
REMARK   92  A    between atoms: _213  and  _214
REMARK   93  A    between atoms: _217  and  _219
REMARK   94  A    between atoms: _219  and  _220
REMARK   95  A    between atoms: _219  and  _222
REMARK   96  A    between atoms: _222  and  _223
REMARK   97  A    between atoms: _226  and  _228
REMARK   98  A    between atoms: _228  and  _229
REMARK   99  A    between atoms: _228  and  _231
REMARK  100  A    between atoms: _231  and  _232
REMARK  101  A    between atoms: _235  and  _237
REMARK  102  A    between atoms: _237  and  _238
REMARK  103  A    between atoms: _237  and  _240
REMARK  104  A    between atoms: _240  and  _241
REMARK  105  A    between atoms: _243  and  _245
REMARK  106  A    between atoms: _245  and  _246
REMARK  107  A    between atoms: _245  and  _248
REMARK  108  A    between atoms: _248  and  _249
REMARK  109  A    between atoms: _259  and  _261
REMARK  110  A    between atoms: _261  and  _262
REMARK  111  A    between atoms: _261  and  _264
REMARK  112  A    between atoms: _264  and  _265
REMARK  113  A    between atoms: _268  and  _270
REMARK  114  A    between atoms: _270  and  _271
REMARK  115  A    between atoms: _270  and  _273
REMARK  116  A    between atoms: _273  and  _274
REMARK  117  A    between atoms: _277  and  _279
REMARK  118  A    between atoms: _279  and  _280
REMARK  119  A    between atoms: _279  and  _282
REMARK  120  A    between atoms: _282  and  _283
REMARK  121  A    between atoms: _283  and  _284
REMARK  122  A    between atoms: _284  and  _285
REMARK  123  A    between atoms: _285  and  _286
REMARK  124  A    between atoms: _290  and  _292
REMARK  125  A    between atoms: _292  and  _293
REMARK  126  A    between atoms: _292  and  _295
REMARK  127  A    between atoms: _295  and  _296
REMARK  128  A    between atoms: _299  and  _301
REMARK  129  A    between atoms: _301  and  _302
REMARK  130  A    between atoms: _305  and  _307
REMARK  131  A    between atoms: _307  and  _308
REMARK  132  A    between atoms: _311  and  _313
REMARK  133  A    between atoms: _313  and  _314
REMARK  134  A    between atoms: _313  and  _316
REMARK  135  A    between atoms: _316  and  _317
REMARK  136  A    between atoms: _321  and  _322
REMARK  137  A    between atoms: _327  and  _329
REMARK  138  A    between atoms: _329  and  _330
REMARK  139  A    between atoms: _329  and  _332
REMARK  140  A    between atoms: _332  and  _333
REMARK  141  A    between atoms: _338  and  _340
REMARK  142  A    between atoms: _340  and  _341
REMARK  143  A    between atoms: _340  and  _343
REMARK  144  A    between atoms: _343  and  _344
REMARK  145  A    between atoms: _347  and  _349
REMARK  146  A    between atoms: _349  and  _350
REMARK  147  A    between atoms: _349  and  _352
REMARK  148  A    between atoms: _352  and  _353
REMARK  149  A    between atoms: _359  and  _361
REMARK  150  A    between atoms: _361  and  _362
REMARK  151  A    between atoms: _361  and  _364
REMARK  152  A    between atoms: _367  and  _369
REMARK  153  A    between atoms: _369  and  _370
REMARK  154  A    between atoms: _369  and  _372
REMARK  155  A    between atoms: _375  and  _377
REMARK  156  A    between atoms: _377  and  _378
REMARK  157  A    between atoms: _380  and  _382
REMARK  158  A    between atoms: _382  and  _383
REMARK  159  A    between atoms: _385  and  _387
REMARK  160  A    between atoms: _387  and  _388
REMARK  161  A    between atoms: _387  and  _390
REMARK  162  A    between atoms: _390  and  _391
REMARK  163  A    between atoms: _394  and  _396
REMARK  164  A    between atoms: _396  and  _397
REMARK  165  A    between atoms: _396  and  _399
REMARK  166  A    between atoms: _399  and  _400
REMARK  167  A    between atoms: _400  and  _402
REMARK  168  A    between atoms: _402  and  MG_565
REMARK  169  A    between atoms: _403  and  _405
REMARK  170  A    between atoms: _405  and  _406
REMARK  171  A    between atoms: _405  and  _408
REMARK  172  A    between atoms: _408  and  _409
REMARK  173  A    between atoms: _414  and  _415
REMARK  174  A    between atoms: _417  and  _419
REMARK  175  A    between atoms: _419  and  _420
REMARK  176  A    between atoms: _419  and  _422
REMARK  177  A    between atoms: _422  and  _423
REMARK  178  A    between atoms: _426  and  _428
REMARK  179  A    between atoms: _428  and  _429
REMARK  180  A    between atoms: _428  and  _431
REMARK  181  A    between atoms: _431  and  _432
REMARK  182  A    between atoms: _432  and  _433
REMARK  183  A    between atoms: _436  and  _438
REMARK  184  A    between atoms: _438  and  _439
REMARK  185  A    between atoms: _438  and  _441
REMARK  186  A    between atoms: _441  and  _442
REMARK  187  A    between atoms: _442  and  _443
REMARK  188  A    between atoms: _443  and  _444
REMARK  189  A    between atoms: _453  and  _455
REMARK  190  A    between atoms: _455  and  _456
REMARK  191  A    between atoms: _455  and  _458
REMARK  192  A    between atoms: _458  and  _459
REMARK  193  A    between atoms: _464  and  _465
REMARK  194  A    between atoms: _467  and  _469
REMARK  195  A    between atoms: _469  and  _470
REMARK  196  A    between atoms: _469  and  _472
REMARK  197  A    between atoms: _472  and  _473
REMARK  198  A    between atoms: _473  and  _474
REMARK  199  A    between atoms: _474  and  _475
REMARK  200  A    between atoms: _484  and  _486
REMARK  201  A    between atoms: _486  and  _487
REMARK  202  A    between atoms: _486  and  _489
REMARK  203  A    between atoms: _489  and  _490
REMARK  204  A    between atoms: _493  and  _495
REMARK  205  A    between atoms: _495  and  _496
REMARK  206  A    between atoms: _498  and  _500
REMARK  207  A    between atoms: _500  and  _501
REMARK  208  A    between atoms: _500  and  _503
REMARK  209  A    between atoms: _503  and  _504
REMARK  210  A    between atoms: _507  and  _509
REMARK  211  A    between atoms: _509  and  _510
REMARK  212  A    between atoms: _509  and  _512
REMARK  213  A    between atoms: _512  and  _513
REMARK  214  A    between atoms: _518  and  _519
REMARK  215  A    between atoms: _521  and  _523
REMARK  216  A    between atoms: _523  and  _524
REMARK  217  A    between atoms: _523  and  _526
REMARK  218  A    between atoms: _526  and  _527
REMARK  219  A    between atoms: _533  and  _535
REMARK  220  A    between atoms: _535  and  _536
REMARK  221  A    between atoms: _535  and  _538
REMARK  222  A    between atoms: _538  and  _539
REMARK  223  A    between atoms: _545  and  _547
REMARK  224  A    between atoms: _547  and  _548
REMARK  225  A    between atoms: _547  and  _550
REMARK  226  A    between atoms: _550  and  _551
REMARK  227  A    between atoms: _554  and  _556
REMARK  228  A    between atoms: _556  and  _557
REMARK  229  A    between atoms: _556  and  _559
REMARK  230  A    between atoms: _559  and  _560
REMARK                            x       y       z     vdW  Elec       q    Type
REMARK                         _______ _______ _______ _____ _____    ______ ____
ROOT
ATOM      1  O   HOH     1      -1.310  14.715 118.989  0.00  0.00    +0.000 OA
ENDROOT
TORSDOF 0
REMARK  Name = ../refined-set-2016/4rhx/4rhx_pocket.pdb
REMARK  230 active torsions:
REMARK  status: ('A' for Active; 'I' for Inactive)
REMARK    1  A    between atoms: _1  and  _3
REMARK    2  A    between atoms: _3  and  _4
REMARK    3  A    between atoms: _3  and  _6
REMARK    4  A    between atoms: _6  and  _7
REMARK    5  A    between atoms: _10  and  _12
REMARK    6  A    between atoms: _12  and  _13
REMARK    7  A    between atoms: _12  and  _15
REMARK    8  A    between atoms: _18  and  _20
REMARK    9  A    between atoms: _20  and  _21
REMARK   10  A    between atoms: _20  and  _23
REMARK   11  A    between atoms: _23  and  _24
REMARK   12  A    between atoms: _27  and  _29
REMARK   13  A    between atoms: _29  and  _30
REMARK   14  A    between atoms: _29  and  _32
REMARK   15  A    between atoms: _32  and  _33
REMARK   16  A    between atoms: _33  and  _34
REMARK   17  A    between atoms: _34  and  _35
REMARK   18  A    between atoms: _35  and  _36
REMARK   19  A    between atoms: _40  and  _42
REMARK   20  A    between atoms: _42  and  _43
REMARK   21  A    between atoms: _45  and  _47
REMARK   22  A    between atoms: _47  and  _48
REMARK   23  A    between atoms: _51  and  _53
REMARK   24  A    between atoms: _53  and  _54
REMARK   25  A    between atoms: _53  and  _56
REMARK   26  A    between atoms: _59  and  _61
REMARK   27  A    between atoms: _61  and  _62
REMARK   28  A    between atoms: _61  and  _64
REMARK   29  A    between atoms: _64  and  _65
REMARK   30  A    between atoms: _65  and  _66
REMARK   31  A    between atoms: _68  and  _70
REMARK   32  A    between atoms: _70  and  _71
REMARK   33  A    between atoms: _74  and  _76
REMARK   34  A    between atoms: _76  and  _77
REMARK   35  A    between atoms: _76  and  _79
REMARK   36  A    between atoms: _82  and  _84
REMARK   37  A    between atoms: _84  and  _85
REMARK   38  A    between atoms: _84  and  _87
REMARK   39  A    between atoms: _87  and  _88
REMARK   40  A    between atoms: _90  and  _92
REMARK   41  A    between atoms: _92  and  _93
REMARK   42  A    between atoms: _92  and  _95
REMARK   43  A    between atoms: _95  and  _96
REMARK   44  A    between atoms: _98  and  _100
REMARK   45  A    between atoms: _100  and  _101
REMARK   46  A    between atoms: _100  and  _103
REMARK   47  A    between atoms: _103  and  _104
REMARK   48  A    between atoms: _109  and  _110
REMARK   49  A    between atoms: _112  and  _114
REMARK   50  A    between atoms: _114  and  _115
REMARK   51  A    between atoms: _117  and  _119
REMARK   52  A    between atoms: _119  and  _120
REMARK   53  A    between atoms: _119  and  _122
REMARK   54  A    between atoms: _125  and  _127
REMARK   55  A    between atoms: _127  and  _128
REMARK   56  A    between atoms: _127  and  _130
REMARK   57  A    between atoms: _130  and  _131
REMARK   58  A    between atoms: _131  and  _132
REMARK   59  A    between atoms: _132  and  _133
REMARK   60  A    between atoms: _142  and  _144
REMARK   61  A    between atoms: _144  and  _145
REMARK   62  A    between atoms: _144  and  _147
REMARK   63  A    between atoms: _147  and  _148
REMARK   64  A    between atoms: _151  and  _153
REMARK   65  A    between atoms: _153  and  _154
REMARK   66  A    between atoms: _153  and  _156
REMARK   67  A    between atoms: _156  and  _157
REMARK   68  A    between atoms: _157  and  _158
REMARK   69  A    between atoms: _161  and  _163
REMARK   70  A    between atoms: _163  and  _164
REMARK   71  A    between atoms: _163  and  _166
REMARK   72  A    between atoms: _166  and  _167
REMARK   73  A    between atoms: _170  and  _172
REMARK   74  A    between atoms: _172  and  _173
REMARK   75  A    between atoms: _172  and  _175
REMARK   76  A    between atoms: _178  and  _180
REMARK   77  A    between atoms: _180  and  _181
REMARK   78  A    between atoms: _180  and  _183
REMARK   79  A    between atoms: _186  and  _188
REMARK   80  A    between atoms: _188  and  _189
REMARK   81  A    between atoms: _188  and  _191
REMARK   82  A    between atoms: _191  and  _192
REMARK   83  A    between atoms: _195  and  _197
REMARK   84  A    between atoms: _197  and  _198
REMARK   85  A    between atoms: _197  and  _200
REMARK   86  A    between atoms: _200  and  _201
REMARK   87  A    between atoms: _203  and  _205
REMARK   88  A    between atoms: _205  and  _206
REMARK   89  A    between atoms: _208  and  _210
REMARK   90  A    between atoms: _210  and  _211
REMARK   91  A    between atoms: _210  and  _213
REMARK   92  A    between atoms: _213  and  _214
REMARK   93  A    between atoms: _217  and  _219
REMARK   94  A    between atoms: _219  and  _220
REMARK   95  A    between atoms: _219  and  _222
REMARK   96  A    between atoms: _222  and  _223
REMARK   97  A    between atoms: _226  and  _228
REMARK   98  A    between atoms: _228  and  _229
REMARK   99  A    between atoms: _228  and  _231
REMARK  100  A    between atoms: _231  and  _232
REMARK  101  A    between atoms: _235  and  _237
REMARK  102  A    between atoms: _237  and  _238
REMARK  103  A    between atoms: _237  and  _240
REMARK  104  A    between atoms: _240  and  _241
REMARK  105  A    between atoms: _243  and  _245
REMARK  106  A    between atoms: _245  and  _246
REMARK  107  A    between atoms: _245  and  _248
REMARK  108  A    between atoms: _248  and  _249
REMARK  109  A    between atoms: _259  and  _261
REMARK  110  A    between atoms: _261  and  _262
REMARK  111  A    between atoms: _261  and  _264
REMARK  112  A    between atoms: _264  and  _265
REMARK  113  A    between atoms: _268  and  _270
REMARK  114  A    between atoms: _270  and  _271
REMARK  115  A    between atoms: _270  and  _273
REMARK  116  A    between atoms: _273  and  _274
REMARK  117  A    between atoms: _277  and  _279
REMARK  118  A    between atoms: _279  and  _280
REMARK  119  A    between atoms: _279  and  _282
REMARK  120  A    between atoms: _282  and  _283
REMARK  121  A    between atoms: _283  and  _284
REMARK  122  A    between atoms: _284  and  _285
REMARK  123  A    between atoms: _285  and  _286
REMARK  124  A    between atoms: _290  and  _292
REMARK  125  A    between atoms: _292  and  _293
REMARK  126  A    between atoms: _292  and  _295
REMARK  127  A    between atoms: _295  and  _296
REMARK  128  A    between atoms: _299  and  _301
REMARK  129  A    between atoms: _301  and  _302
REMARK  130  A    between atoms: _305  and  _307
REMARK  131  A    between atoms: _307  and  _308
REMARK  132  A    between atoms: _311  and  _313
REMARK  133  A    between atoms: _313  and  _314
REMARK  134  A    between atoms: _313  and  _316
REMARK  135  A    between atoms: _316  and  _317
REMARK  136  A    between atoms: _321  and  _322
REMARK  137  A    between atoms: _327  and  _329
REMARK  138  A    between atoms: _329  and  _330
REMARK  139  A    between atoms: _329  and  _332
REMARK  140  A    between atoms: _332  and  _333
REMARK  141  A    between atoms: _338  and  _340
REMARK  142  A    between atoms: _340  and  _341
REMARK  143  A    between atoms: _340  and  _343
REMARK  144  A    between atoms: _343  and  _344
REMARK  145  A    between atoms: _347  and  _349
REMARK  146  A    between atoms: _349  and  _350
REMARK  147  A    between atoms: _349  and  _352
REMARK  148  A    between atoms: _352  and  _353
REMARK  149  A    between atoms: _359  and  _361
REMARK  150  A    between atoms: _361  and  _362
REMARK  151  A    between atoms: _361  and  _364
REMARK  152  A    between atoms: _367  and  _369
REMARK  153  A    between atoms: _369  and  _370
REMARK  154  A    between atoms: _369  and  _372
REMARK  155  A    between atoms: _375  and  _377
REMARK  156  A    between atoms: _377  and  _378
REMARK  157  A    between atoms: _380  and  _382
REMARK  158  A    between atoms: _382  and  _383
REMARK  159  A    between atoms: _385  and  _387
REMARK  160  A    between atoms: _387  and  _388
REMARK  161  A    between atoms: _387  and  _390
REMARK  162  A    between atoms: _390  and  _391
REMARK  163  A    between atoms: _394  and  _396
REMARK  164  A    between atoms: _396  and  _397
REMARK  165  A    between atoms: _396  and  _399
REMARK  166  A    between atoms: _399  and  _400
REMARK  167  A    between atoms: _400  and  _402
REMARK  168  A    between atoms: _402  and  MG_565
REMARK  169  A    between atoms: _403  and  _405
REMARK  170  A    between atoms: _405  and  _406
REMARK  171  A    between atoms: _405  and  _408
REMARK  172  A    between atoms: _408  and  _409
REMARK  173  A    between atoms: _414  and  _415
REMARK  174  A    between atoms: _417  and  _419
REMARK  175  A    between atoms: _419  and  _420
REMARK  176  A    between atoms: _419  and  _422
REMARK  177  A    between atoms: _422  and  _423
REMARK  178  A    between atoms: _426  and  _428
REMARK  179  A    between atoms: _428  and  _429
REMARK  180  A    between atoms: _428  and  _431
REMARK  181  A    between atoms: _431  and  _432
REMARK  182  A    between atoms: _432  and  _433
REMARK  183  A    between atoms: _436  and  _438
REMARK  184  A    between atoms: _438  and  _439
REMARK  185  A    between atoms: _438  and  _441
REMARK  186  A    between atoms: _441  and  _442
REMARK  187  A    between atoms: _442  and  _443
REMARK  188  A    between atoms: _443  and  _444
REMARK  189  A    between atoms: _453  and  _455
REMARK  190  A    between atoms: _455  and  _456
REMARK  191  A    between atoms: _455  and  _458
REMARK  192  A    between atoms: _458  and  _459
REMARK  193  A    between atoms: _464  and  _465
REMARK  194  A    between atoms: _467  and  _469
REMARK  195  A    between atoms: _469  and  _470
REMARK  196  A    between atoms: _469  and  _472
REMARK  197  A    between atoms: _472  and  _473
REMARK  198  A    between atoms: _473  and  _474
REMARK  199  A    between atoms: _474  and  _475
REMARK  200  A    between atoms: _484  and  _486
REMARK  201  A    between atoms: _486  and  _487
REMARK  202  A    between atoms: _486  and  _489
REMARK  203  A    between atoms: _489  and  _490
REMARK  204  A    between atoms: _493  and  _495
REMARK  205  A    between atoms: _495  and  _496
REMARK  206  A    between atoms: _498  and  _500
REMARK  207  A    between atoms: _500  and  _501
REMARK  208  A    between atoms: _500  and  _503
REMARK  209  A    between atoms: _503  and  _504
REMARK  210  A    between atoms: _507  and  _509
REMARK  211  A    between atoms: _509  and  _510
REMARK  212  A    between atoms: _509  and  _512
REMARK  213  A    between atoms: _512  and  _513
REMARK  214  A    between atoms: _518  and  _519
REMARK  215  A    between atoms: _521  and  _523
REMARK  216  A    between atoms: _523  and  _524
REMARK  217  A    between atoms: _523  and  _526
REMARK  218  A    between atoms: _526  and  _527
REMARK  219  A    between atoms: _533  and  _535
REMARK  220  A    between atoms: _535  and  _536
REMARK  221  A    between atoms: _535  and  _538
REMARK  222  A    between atoms: _538  and  _539
REMARK  223  A    between atoms: _545  and  _547
REMARK  224  A    between atoms: _547  and  _548
REMARK  225  A    between atoms: _547  and  _550
REMARK  226  A    between atoms: _550  and  _551
REMARK  227  A    between atoms: _554  and  _556
REMARK  228  A    between atoms: _556  and  _557
REMARK  229  A    between atoms: _556  and  _559
REMARK  230  A    between atoms: _559  and  _560
REMARK                            x       y       z     vdW  Elec       q    Type
REMARK                         _______ _______ _______ _____ _____    ______ ____
ROOT
ATOM      1  O   HOH     1      -1.066  18.832 125.475  0.00  0.00    +0.000 OA
ENDROOT
TORSDOF 0
REMARK  Name = ../refined-set-2016/4rhx/4rhx_pocket.pdb
REMARK  230 active torsions:
REMARK  status: ('A' for Active; 'I' for Inactive)
REMARK    1  A    between atoms: _1  and  _3
REMARK    2  A    between atoms: _3  and  _4
REMARK    3  A    between atoms: _3  and  _6
REMARK    4  A    between atoms: _6  and  _7
REMARK    5  A    between atoms: _10  and  _12
REMARK    6  A    between atoms: _12  and  _13
REMARK    7  A    between atoms: _12  and  _15
REMARK    8  A    between atoms: _18  and  _20
REMARK    9  A    between atoms: _20  and  _21
REMARK   10  A    between atoms: _20  and  _23
REMARK   11  A    between atoms: _23  and  _24
REMARK   12  A    between atoms: _27  and  _29
REMARK   13  A    between atoms: _29  and  _30
REMARK   14  A    between atoms: _29  and  _32
REMARK   15  A    between atoms: _32  and  _33
REMARK   16  A    between atoms: _33  and  _34
REMARK   17  A    between atoms: _34  and  _35
REMARK   18  A    between atoms: _35  and  _36
REMARK   19  A    between atoms: _40  and  _42
REMARK   20  A    between atoms: _42  and  _43
REMARK   21  A    between atoms: _45  and  _47
REMARK   22  A    between atoms: _47  and  _48
REMARK   23  A    between atoms: _51  and  _53
REMARK   24  A    between atoms: _53  and  _54
REMARK   25  A    between atoms: _53  and  _56
REMARK   26  A    between atoms: _59  and  _61
REMARK   27  A    between atoms: _61  and  _62
REMARK   28  A    between atoms: _61  and  _64
REMARK   29  A    between atoms: _64  and  _65
REMARK   30  A    between atoms: _65  and  _66
REMARK   31  A    between atoms: _68  and  _70
REMARK   32  A    between atoms: _70  and  _71
REMARK   33  A    between atoms: _74  and  _76
REMARK   34  A    between atoms: _76  and  _77
REMARK   35  A    between atoms: _76  and  _79
REMARK   36  A    between atoms: _82  and  _84
REMARK   37  A    between atoms: _84  and  _85
REMARK   38  A    between atoms: _84  and  _87
REMARK   39  A    between atoms: _87  and  _88
REMARK   40  A    between atoms: _90  and  _92
REMARK   41  A    between atoms: _92  and  _93
REMARK   42  A    between atoms: _92  and  _95
REMARK   43  A    between atoms: _95  and  _96
REMARK   44  A    between atoms: _98  and  _100
REMARK   45  A    between atoms: _100  and  _101
REMARK   46  A    between atoms: _100  and  _103
REMARK   47  A    between atoms: _103  and  _104
REMARK   48  A    between atoms: _109  and  _110
REMARK   49  A    between atoms: _112  and  _114
REMARK   50  A    between atoms: _114  and  _115
REMARK   51  A    between atoms: _117  and  _119
REMARK   52  A    between atoms: _119  and  _120
REMARK   53  A    between atoms: _119  and  _122
REMARK   54  A    between atoms: _125  and  _127
REMARK   55  A    between atoms: _127  and  _128
REMARK   56  A    between atoms: _127  and  _130
REMARK   57  A    between atoms: _130  and  _131
REMARK   58  A    between atoms: _131  and  _132
REMARK   59  A    between atoms: _132  and  _133
REMARK   60  A    between atoms: _142  and  _144
REMARK   61  A    between atoms: _144  and  _145
REMARK   62  A    between atoms: _144  and  _147
REMARK   63  A    between atoms: _147  and  _148
REMARK   64  A    between atoms: _151  and  _153
REMARK   65  A    between atoms: _153  and  _154
REMARK   66  A    between atoms: _153  and  _156
REMARK   67  A    between atoms: _156  and  _157
REMARK   68  A    between atoms: _157  and  _158
REMARK   69  A    between atoms: _161  and  _163
REMARK   70  A    between atoms: _163  and  _164
REMARK   71  A    between atoms: _163  and  _166
REMARK   72  A    between atoms: _166  and  _167
REMARK   73  A    between atoms: _170  and  _172
REMARK   74  A    between atoms: _172  and  _173
REMARK   75  A    between atoms: _172  and  _175
REMARK   76  A    between atoms: _178  and  _180
REMARK   77  A    between atoms: _180  and  _181
REMARK   78  A    between atoms: _180  and  _183
REMARK   79  A    between atoms: _186  and  _188
REMARK   80  A    between atoms: _188  and  _189
REMARK   81  A    between atoms: _188  and  _191
REMARK   82  A    between atoms: _191  and  _192
REMARK   83  A    between atoms: _195  and  _197
REMARK   84  A    between atoms: _197  and  _198
REMARK   85  A    between atoms: _197  and  _200
REMARK   86  A    between atoms: _200  and  _201
REMARK   87  A    between atoms: _203  and  _205
REMARK   88  A    between atoms: _205  and  _206
REMARK   89  A    between atoms: _208  and  _210
REMARK   90  A    between atoms: _210  and  _211
REMARK   91  A    between atoms: _210  and  _213
REMARK   92  A    between atoms: _213  and  _214
REMARK   93  A    between atoms: _217  and  _219
REMARK   94  A    between atoms: _219  and  _220
REMARK   95  A    between atoms: _219  and  _222
REMARK   96  A    between atoms: _222  and  _223
REMARK   97  A    between atoms: _226  and  _228
REMARK   98  A    between atoms: _228  and  _229
REMARK   99  A    between atoms: _228  and  _231
REMARK  100  A    between atoms: _231  and  _232
REMARK  101  A    between atoms: _235  and  _237
REMARK  102  A    between atoms: _237  and  _238
REMARK  103  A    between atoms: _237  and  _240
REMARK  104  A    between atoms: _240  and  _241
REMARK  105  A    between atoms: _243  and  _245
REMARK  106  A    between atoms: _245  and  _246
REMARK  107  A    between atoms: _245  and  _248
REMARK  108  A    between atoms: _248  and  _249
REMARK  109  A    between atoms: _259  and  _261
REMARK  110  A    between atoms: _261  and  _262
REMARK  111  A    between atoms: _261  and  _264
REMARK  112  A    between atoms: _264  and  _265
REMARK  113  A    between atoms: _268  and  _270
REMARK  114  A    between atoms: _270  and  _271
REMARK  115  A    between atoms: _270  and  _273
REMARK  116  A    between atoms: _273  and  _274
REMARK  117  A    between atoms: _277  and  _279
REMARK  118  A    between atoms: _279  and  _280
REMARK  119  A    between atoms: _279  and  _282
REMARK  120  A    between atoms: _282  and  _283
REMARK  121  A    between atoms: _283  and  _284
REMARK  122  A    between atoms: _284  and  _285
REMARK  123  A    between atoms: _285  and  _286
REMARK  124  A    between atoms: _290  and  _292
REMARK  125  A    between atoms: _292  and  _293
REMARK  126  A    between atoms: _292  and  _295
REMARK  127  A    between atoms: _295  and  _296
REMARK  128  A    between atoms: _299  and  _301
REMARK  129  A    between atoms: _301  and  _302
REMARK  130  A    between atoms: _305  and  _307
REMARK  131  A    between atoms: _307  and  _308
REMARK  132  A    between atoms: _311  and  _313
REMARK  133  A    between atoms: _313  and  _314
REMARK  134  A    between atoms: _313  and  _316
REMARK  135  A    between atoms: _316  and  _317
REMARK  136  A    between atoms: _321  and  _322
REMARK  137  A    between atoms: _327  and  _329
REMARK  138  A    between atoms: _329  and  _330
REMARK  139  A    between atoms: _329  and  _332
REMARK  140  A    between atoms: _332  and  _333
REMARK  141  A    between atoms: _338  and  _340
REMARK  142  A    between atoms: _340  and  _341
REMARK  143  A    between atoms: _340  and  _343
REMARK  144  A    between atoms: _343  and  _344
REMARK  145  A    between atoms: _347  and  _349
REMARK  146  A    between atoms: _349  and  _350
REMARK  147  A    between atoms: _349  and  _352
REMARK  148  A    between atoms: _352  and  _353
REMARK  149  A    between atoms: _359  and  _361
REMARK  150  A    between atoms: _361  and  _362
REMARK  151  A    between atoms: _361  and  _364
REMARK  152  A    between atoms: _367  and  _369
REMARK  153  A    between atoms: _369  and  _370
REMARK  154  A    between atoms: _369  and  _372
REMARK  155  A    between atoms: _375  and  _377
REMARK  156  A    between atoms: _377  and  _378
REMARK  157  A    between atoms: _380  and  _382
REMARK  158  A    between atoms: _382  and  _383
REMARK  159  A    between atoms: _385  and  _387
REMARK  160  A    between atoms: _387  and  _388
REMARK  161  A    between atoms: _387  and  _390
REMARK  162  A    between atoms: _390  and  _391
REMARK  163  A    between atoms: _394  and  _396
REMARK  164  A    between atoms: _396  and  _397
REMARK  165  A    between atoms: _396  and  _399
REMARK  166  A    between atoms: _399  and  _400
REMARK  167  A    between atoms: _400  and  _402
REMARK  168  A    between atoms: _402  and  MG_565
REMARK  169  A    between atoms: _403  and  _405
REMARK  170  A    between atoms: _405  and  _406
REMARK  171  A    between atoms: _405  and  _408
REMARK  172  A    between atoms: _408  and  _409
REMARK  173  A    between atoms: _414  and  _415
REMARK  174  A    between atoms: _417  and  _419
REMARK  175  A    between atoms: _419  and  _420
REMARK  176  A    between atoms: _419  and  _422
REMARK  177  A    between atoms: _422  and  _423
REMARK  178  A    between atoms: _426  and  _428
REMARK  179  A    between atoms: _428  and  _429
REMARK  180  A    between atoms: _428  and  _431
REMARK  181  A    between atoms: _431  and  _432
REMARK  182  A    between atoms: _432  and  _433
REMARK  183  A    between atoms: _436  and  _438
REMARK  184  A    between atoms: _438  and  _439
REMARK  185  A    between atoms: _438  and  _441
REMARK  186  A    between atoms: _441  and  _442
REMARK  187  A    between atoms: _442  and  _443
REMARK  188  A    between atoms: _443  and  _444
REMARK  189  A    between atoms: _453  and  _455
REMARK  190  A    between atoms: _455  and  _456
REMARK  191  A    between atoms: _455  and  _458
REMARK  192  A    between atoms: _458  and  _459
REMARK  193  A    between atoms: _464  and  _465
REMARK  194  A    between atoms: _467  and  _469
REMARK  195  A    between atoms: _469  and  _470
REMARK  196  A    between atoms: _469  and  _472
REMARK  197  A    between atoms: _472  and  _473
REMARK  198  A    between atoms: _473  and  _474
REMARK  199  A    between atoms: _474  and  _475
REMARK  200  A    between atoms: _484  and  _486
REMARK  201  A    between atoms: _486  and  _487
REMARK  202  A    between atoms: _486  and  _489
REMARK  203  A    between atoms: _489  and  _490
REMARK  204  A    between atoms: _493  and  _495
REMARK  205  A    between atoms: _495  and  _496
REMARK  206  A    between atoms: _498  and  _500
REMARK  207  A    between atoms: _500  and  _501
REMARK  208  A    between atoms: _500  and  _503
REMARK  209  A    between atoms: _503  and  _504
REMARK  210  A    between atoms: _507  and  _509
REMARK  211  A    between atoms: _509  and  _510
REMARK  212  A    between atoms: _509  and  _512
REMARK  213  A    between atoms: _512  and  _513
REMARK  214  A    between atoms: _518  and  _519
REMARK  215  A    between atoms: _521  and  _523
REMARK  216  A    between atoms: _523  and  _524
REMARK  217  A    between atoms: _523  and  _526
REMARK  218  A    between atoms: _526  and  _527
REMARK  219  A    between atoms: _533  and  _535
REMARK  220  A    between atoms: _535  and  _536
REMARK  221  A    between atoms: _535  and  _538
REMARK  222  A    between atoms: _538  and  _539
REMARK  223  A    between atoms: _545  and  _547
REMARK  224  A    between atoms: _547  and  _548
REMARK  225  A    between atoms: _547  and  _550
REMARK  226  A    between atoms: _550  and  _551
REMARK  227  A    between atoms: _554  and  _556
REMARK  228  A    between atoms: _556  and  _557
REMARK  229  A    between atoms: _556  and  _559
REMARK  230  A    between atoms: _559  and  _560
REMARK                            x       y       z     vdW  Elec       q    Type
REMARK                         _______ _______ _______ _____ _____    ______ ____
ROOT
ATOM      1  O   HOH     1      -0.092  13.948 123.840  0.00  0.00    +0.000 OA
ENDROOT
TORSDOF 0
REMARK  Name = ../refined-set-2016/4rhx/4rhx_pocket.pdb
REMARK  230 active torsions:
REMARK  status: ('A' for Active; 'I' for Inactive)
REMARK    1  A    between atoms: _1  and  _3
REMARK    2  A    between atoms: _3  and  _4
REMARK    3  A    between atoms: _3  and  _6
REMARK    4  A    between atoms: _6  and  _7
REMARK    5  A    between atoms: _10  and  _12
REMARK    6  A    between atoms: _12  and  _13
REMARK    7  A    between atoms: _12  and  _15
REMARK    8  A    between atoms: _18  and  _20
REMARK    9  A    between atoms: _20  and  _21
REMARK   10  A    between atoms: _20  and  _23
REMARK   11  A    between atoms: _23  and  _24
REMARK   12  A    between atoms: _27  and  _29
REMARK   13  A    between atoms: _29  and  _30
REMARK   14  A    between atoms: _29  and  _32
REMARK   15  A    between atoms: _32  and  _33
REMARK   16  A    between atoms: _33  and  _34
REMARK   17  A    between atoms: _34  and  _35
REMARK   18  A    between atoms: _35  and  _36
REMARK   19  A    between atoms: _40  and  _42
REMARK   20  A    between atoms: _42  and  _43
REMARK   21  A    between atoms: _45  and  _47
REMARK   22  A    between atoms: _47  and  _48
REMARK   23  A    between atoms: _51  and  _53
REMARK   24  A    between atoms: _53  and  _54
REMARK   25  A    between atoms: _53  and  _56
REMARK   26  A    between atoms: _59  and  _61
REMARK   27  A    between atoms: _61  and  _62
REMARK   28  A    between atoms: _61  and  _64
REMARK   29  A    between atoms: _64  and  _65
REMARK   30  A    between atoms: _65  and  _66
REMARK   31  A    between atoms: _68  and  _70
REMARK   32  A    between atoms: _70  and  _71
REMARK   33  A    between atoms: _74  and  _76
REMARK   34  A    between atoms: _76  and  _77
REMARK   35  A    between atoms: _76  and  _79
REMARK   36  A    between atoms: _82  and  _84
REMARK   37  A    between atoms: _84  and  _85
REMARK   38  A    between atoms: _84  and  _87
REMARK   39  A    between atoms: _87  and  _88
REMARK   40  A    between atoms: _90  and  _92
REMARK   41  A    between atoms: _92  and  _93
REMARK   42  A    between atoms: _92  and  _95
REMARK   43  A    between atoms: _95  and  _96
REMARK   44  A    between atoms: _98  and  _100
REMARK   45  A    between atoms: _100  and  _101
REMARK   46  A    between atoms: _100  and  _103
REMARK   47  A    between atoms: _103  and  _104
REMARK   48  A    between atoms: _109  and  _110
REMARK   49  A    between atoms: _112  and  _114
REMARK   50  A    between atoms: _114  and  _115
REMARK   51  A    between atoms: _117  and  _119
REMARK   52  A    between atoms: _119  and  _120
REMARK   53  A    between atoms: _119  and  _122
REMARK   54  A    between atoms: _125  and  _127
REMARK   55  A    between atoms: _127  and  _128
REMARK   56  A    between atoms: _127  and  _130
REMARK   57  A    between atoms: _130  and  _131
REMARK   58  A    between atoms: _131  and  _132
REMARK   59  A    between atoms: _132  and  _133
REMARK   60  A    between atoms: _142  and  _144
REMARK   61  A    between atoms: _144  and  _145
REMARK   62  A    between atoms: _144  and  _147
REMARK   63  A    between atoms: _147  and  _148
REMARK   64  A    between atoms: _151  and  _153
REMARK   65  A    between atoms: _153  and  _154
REMARK   66  A    between atoms: _153  and  _156
REMARK   67  A    between atoms: _156  and  _157
REMARK   68  A    between atoms: _157  and  _158
REMARK   69  A    between atoms: _161  and  _163
REMARK   70  A    between atoms: _163  and  _164
REMARK   71  A    between atoms: _163  and  _166
REMARK   72  A    between atoms: _166  and  _167
REMARK   73  A    between atoms: _170  and  _172
REMARK   74  A    between atoms: _172  and  _173
REMARK   75  A    between atoms: _172  and  _175
REMARK   76  A    between atoms: _178  and  _180
REMARK   77  A    between atoms: _180  and  _181
REMARK   78  A    between atoms: _180  and  _183
REMARK   79  A    between atoms: _186  and  _188
REMARK   80  A    between atoms: _188  and  _189
REMARK   81  A    between atoms: _188  and  _191
REMARK   82  A    between atoms: _191  and  _192
REMARK   83  A    between atoms: _195  and  _197
REMARK   84  A    between atoms: _197  and  _198
REMARK   85  A    between atoms: _197  and  _200
REMARK   86  A    between atoms: _200  and  _201
REMARK   87  A    between atoms: _203  and  _205
REMARK   88  A    between atoms: _205  and  _206
REMARK   89  A    between atoms: _208  and  _210
REMARK   90  A    between atoms: _210  and  _211
REMARK   91  A    between atoms: _210  and  _213
REMARK   92  A    between atoms: _213  and  _214
REMARK   93  A    between atoms: _217  and  _219
REMARK   94  A    between atoms: _219  and  _220
REMARK   95  A    between atoms: _219  and  _222
REMARK   96  A    between atoms: _222  and  _223
REMARK   97  A    between atoms: _226  and  _228
REMARK   98  A    between atoms: _228  and  _229
REMARK   99  A    between atoms: _228  and  _231
REMARK  100  A    between atoms: _231  and  _232
REMARK  101  A    between atoms: _235  and  _237
REMARK  102  A    between atoms: _237  and  _238
REMARK  103  A    between atoms: _237  and  _240
REMARK  104  A    between atoms: _240  and  _241
REMARK  105  A    between atoms: _243  and  _245
REMARK  106  A    between atoms: _245  and  _246
REMARK  107  A    between atoms: _245  and  _248
REMARK  108  A    between atoms: _248  and  _249
REMARK  109  A    between atoms: _259  and  _261
REMARK  110  A    between atoms: _261  and  _262
REMARK  111  A    between atoms: _261  and  _264
REMARK  112  A    between atoms: _264  and  _265
REMARK  113  A    between atoms: _268  and  _270
REMARK  114  A    between atoms: _270  and  _271
REMARK  115  A    between atoms: _270  and  _273
REMARK  116  A    between atoms: _273  and  _274
REMARK  117  A    between atoms: _277  and  _279
REMARK  118  A    between atoms: _279  and  _280
REMARK  119  A    between atoms: _279  and  _282
REMARK  120  A    between atoms: _282  and  _283
REMARK  121  A    between atoms: _283  and  _284
REMARK  122  A    between atoms: _284  and  _285
REMARK  123  A    between atoms: _285  and  _286
REMARK  124  A    between atoms: _290  and  _292
REMARK  125  A    between atoms: _292  and  _293
REMARK  126  A    between atoms: _292  and  _295
REMARK  127  A    between atoms: _295  and  _296
REMARK  128  A    between atoms: _299  and  _301
REMARK  129  A    between atoms: _301  and  _302
REMARK  130  A    between atoms: _305  and  _307
REMARK  131  A    between atoms: _307  and  _308
REMARK  132  A    between atoms: _311  and  _313
REMARK  133  A    between atoms: _313  and  _314
REMARK  134  A    between atoms: _313  and  _316
REMARK  135  A    between atoms: _316  and  _317
REMARK  136  A    between atoms: _321  and  _322
REMARK  137  A    between atoms: _327  and  _329
REMARK  138  A    between atoms: _329  and  _330
REMARK  139  A    between atoms: _329  and  _332
REMARK  140  A    between atoms: _332  and  _333
REMARK  141  A    between atoms: _338  and  _340
REMARK  142  A    between atoms: _340  and  _341
REMARK  143  A    between atoms: _340  and  _343
REMARK  144  A    between atoms: _343  and  _344
REMARK  145  A    between atoms: _347  and  _349
REMARK  146  A    between atoms: _349  and  _350
REMARK  147  A    between atoms: _349  and  _352
REMARK  148  A    between atoms: _352  and  _353
REMARK  149  A    between atoms: _359  and  _361
REMARK  150  A    between atoms: _361  and  _362
REMARK  151  A    between atoms: _361  and  _364
REMARK  152  A    between atoms: _367  and  _369
REMARK  153  A    between atoms: _369  and  _370
REMARK  154  A    between atoms: _369  and  _372
REMARK  155  A    between atoms: _375  and  _377
REMARK  156  A    between atoms: _377  and  _378
REMARK  157  A    between atoms: _380  and  _382
REMARK  158  A    between atoms: _382  and  _383
REMARK  159  A    between atoms: _385  and  _387
REMARK  160  A    between atoms: _387  and  _388
REMARK  161  A    between atoms: _387  and  _390
REMARK  162  A    between atoms: _390  and  _391
REMARK  163  A    between atoms: _394  and  _396
REMARK  164  A    between atoms: _396  and  _397
REMARK  165  A    between atoms: _396  and  _399
REMARK  166  A    between atoms: _399  and  _400
REMARK  167  A    between atoms: _400  and  _402
REMARK  168  A    between atoms: _402  and  MG_565
REMARK  169  A    between atoms: _403  and  _405
REMARK  170  A    between atoms: _405  and  _406
REMARK  171  A    between atoms: _405  and  _408
REMARK  172  A    between atoms: _408  and  _409
REMARK  173  A    between atoms: _414  and  _415
REMARK  174  A    between atoms: _417  and  _419
REMARK  175  A    between atoms: _419  and  _420
REMARK  176  A    between atoms: _419  and  _422
REMARK  177  A    between atoms: _422  and  _423
REMARK  178  A    between atoms: _426  and  _428
REMARK  179  A    between atoms: _428  and  _429
REMARK  180  A    between atoms: _428  and  _431
REMARK  181  A    between atoms: _431  and  _432
REMARK  182  A    between atoms: _432  and  _433
REMARK  183  A    between atoms: _436  and  _438
REMARK  184  A    between atoms: _438  and  _439
REMARK  185  A    between atoms: _438  and  _441
REMARK  186  A    between atoms: _441  and  _442
REMARK  187  A    between atoms: _442  and  _443
REMARK  188  A    between atoms: _443  and  _444
REMARK  189  A    between atoms: _453  and  _455
REMARK  190  A    between atoms: _455  and  _456
REMARK  191  A    between atoms: _455  and  _458
REMARK  192  A    between atoms: _458  and  _459
REMARK  193  A    between atoms: _464  and  _465
REMARK  194  A    between atoms: _467  and  _469
REMARK  195  A    between atoms: _469  and  _470
REMARK  196  A    between atoms: _469  and  _472
REMARK  197  A    between atoms: _472  and  _473
REMARK  198  A    between atoms: _473  and  _474
REMARK  199  A    between atoms: _474  and  _475
REMARK  200  A    between atoms: _484  and  _486
REMARK  201  A    between atoms: _486  and  _487
REMARK  202  A    between atoms: _486  and  _489
REMARK  203  A    between atoms: _489  and  _490
REMARK  204  A    between atoms: _493  and  _495
REMARK  205  A    between atoms: _495  and  _496
REMARK  206  A    between atoms: _498  and  _500
REMARK  207  A    between atoms: _500  and  _501
REMARK  208  A    between atoms: _500  and  _503
REMARK  209  A    between atoms: _503  and  _504
REMARK  210  A    between atoms: _507  and  _509
REMARK  211  A    between atoms: _509  and  _510
REMARK  212  A    between atoms: _509  and  _512
REMARK  213  A    between atoms: _512  and  _513
REMARK  214  A    between atoms: _518  and  _519
REMARK  215  A    between atoms: _521  and  _523
REMARK  216  A    between atoms: _523  and  _524
REMARK  217  A    between atoms: _523  and  _526
REMARK  218  A    between atoms: _526  and  _527
REMARK  219  A    between atoms: _533  and  _535
REMARK  220  A    between atoms: _535  and  _536
REMARK  221  A    between atoms: _535  and  _538
REMARK  222  A    between atoms: _538  and  _539
REMARK  223  A    between atoms: _545  and  _547
REMARK  224  A    between atoms: _547  and  _548
REMARK  225  A    between atoms: _547  and  _550
REMARK  226  A    between atoms: _550  and  _551
REMARK  227  A    between atoms: _554  and  _556
REMARK  228  A    between atoms: _556  and  _557
REMARK  229  A    between atoms: _556  and  _559
REMARK  230  A    between atoms: _559  and  _560
REMARK                            x       y       z     vdW  Elec       q    Type
REMARK                         _______ _______ _______ _____ _____    ______ ____
ROOT
ATOM      1  O   HOH     1      -1.981  17.938 129.762  0.00  0.00    +0.000 OA
ENDROOT
TORSDOF 0
REMARK  Name = ../refined-set-2016/4rhx/4rhx_pocket.pdb
REMARK  230 active torsions:
REMARK  status: ('A' for Active; 'I' for Inactive)
REMARK    1  A    between atoms: _1  and  _3
REMARK    2  A    between atoms: _3  and  _4
REMARK    3  A    between atoms: _3  and  _6
REMARK    4  A    between atoms: _6  and  _7
REMARK    5  A    between atoms: _10  and  _12
REMARK    6  A    between atoms: _12  and  _13
REMARK    7  A    between atoms: _12  and  _15
REMARK    8  A    between atoms: _18  and  _20
REMARK    9  A    between atoms: _20  and  _21
REMARK   10  A    between atoms: _20  and  _23
REMARK   11  A    between atoms: _23  and  _24
REMARK   12  A    between atoms: _27  and  _29
REMARK   13  A    between atoms: _29  and  _30
REMARK   14  A    between atoms: _29  and  _32
REMARK   15  A    between atoms: _32  and  _33
REMARK   16  A    between atoms: _33  and  _34
REMARK   17  A    between atoms: _34  and  _35
REMARK   18  A    between atoms: _35  and  _36
REMARK   19  A    between atoms: _40  and  _42
REMARK   20  A    between atoms: _42  and  _43
REMARK   21  A    between atoms: _45  and  _47
REMARK   22  A    between atoms: _47  and  _48
REMARK   23  A    between atoms: _51  and  _53
REMARK   24  A    between atoms: _53  and  _54
REMARK   25  A    between atoms: _53  and  _56
REMARK   26  A    between atoms: _59  and  _61
REMARK   27  A    between atoms: _61  and  _62
REMARK   28  A    between atoms: _61  and  _64
REMARK   29  A    between atoms: _64  and  _65
REMARK   30  A    between atoms: _65  and  _66
REMARK   31  A    between atoms: _68  and  _70
REMARK   32  A    between atoms: _70  and  _71
REMARK   33  A    between atoms: _74  and  _76
REMARK   34  A    between atoms: _76  and  _77
REMARK   35  A    between atoms: _76  and  _79
REMARK   36  A    between atoms: _82  and  _84
REMARK   37  A    between atoms: _84  and  _85
REMARK   38  A    between atoms: _84  and  _87
REMARK   39  A    between atoms: _87  and  _88
REMARK   40  A    between atoms: _90  and  _92
REMARK   41  A    between atoms: _92  and  _93
REMARK   42  A    between atoms: _92  and  _95
REMARK   43  A    between atoms: _95  and  _96
REMARK   44  A    between atoms: _98  and  _100
REMARK   45  A    between atoms: _100  and  _101
REMARK   46  A    between atoms: _100  and  _103
REMARK   47  A    between atoms: _103  and  _104
REMARK   48  A    between atoms: _109  and  _110
REMARK   49  A    between atoms: _112  and  _114
REMARK   50  A    between atoms: _114  and  _115
REMARK   51  A    between atoms: _117  and  _119
REMARK   52  A    between atoms: _119  and  _120
REMARK   53  A    between atoms: _119  and  _122
REMARK   54  A    between atoms: _125  and  _127
REMARK   55  A    between atoms: _127  and  _128
REMARK   56  A    between atoms: _127  and  _130
REMARK   57  A    between atoms: _130  and  _131
REMARK   58  A    between atoms: _131  and  _132
REMARK   59  A    between atoms: _132  and  _133
REMARK   60  A    between atoms: _142  and  _144
REMARK   61  A    between atoms: _144  and  _145
REMARK   62  A    between atoms: _144  and  _147
REMARK   63  A    between atoms: _147  and  _148
REMARK   64  A    between atoms: _151  and  _153
REMARK   65  A    between atoms: _153  and  _154
REMARK   66  A    between atoms: _153  and  _156
REMARK   67  A    between atoms: _156  and  _157
REMARK   68  A    between atoms: _157  and  _158
REMARK   69  A    between atoms: _161  and  _163
REMARK   70  A    between atoms: _163  and  _164
REMARK   71  A    between atoms: _163  and  _166
REMARK   72  A    between atoms: _166  and  _167
REMARK   73  A    between atoms: _170  and  _172
REMARK   74  A    between atoms: _172  and  _173
REMARK   75  A    between atoms: _172  and  _175
REMARK   76  A    between atoms: _178  and  _180
REMARK   77  A    between atoms: _180  and  _181
REMARK   78  A    between atoms: _180  and  _183
REMARK   79  A    between atoms: _186  and  _188
REMARK   80  A    between atoms: _188  and  _189
REMARK   81  A    between atoms: _188  and  _191
REMARK   82  A    between atoms: _191  and  _192
REMARK   83  A    between atoms: _195  and  _197
REMARK   84  A    between atoms: _197  and  _198
REMARK   85  A    between atoms: _197  and  _200
REMARK   86  A    between atoms: _200  and  _201
REMARK   87  A    between atoms: _203  and  _205
REMARK   88  A    between atoms: _205  and  _206
REMARK   89  A    between atoms: _208  and  _210
REMARK   90  A    between atoms: _210  and  _211
REMARK   91  A    between atoms: _210  and  _213
REMARK   92  A    between atoms: _213  and  _214
REMARK   93  A    between atoms: _217  and  _219
REMARK   94  A    between atoms: _219  and  _220
REMARK   95  A    between atoms: _219  and  _222
REMARK   96  A    between atoms: _222  and  _223
REMARK   97  A    between atoms: _226  and  _228
REMARK   98  A    between atoms: _228  and  _229
REMARK   99  A    between atoms: _228  and  _231
REMARK  100  A    between atoms: _231  and  _232
REMARK  101  A    between atoms: _235  and  _237
REMARK  102  A    between atoms: _237  and  _238
REMARK  103  A    between atoms: _237  and  _240
REMARK  104  A    between atoms: _240  and  _241
REMARK  105  A    between atoms: _243  and  _245
REMARK  106  A    between atoms: _245  and  _246
REMARK  107  A    between atoms: _245  and  _248
REMARK  108  A    between atoms: _248  and  _249
REMARK  109  A    between atoms: _259  and  _261
REMARK  110  A    between atoms: _261  and  _262
REMARK  111  A    between atoms: _261  and  _264
REMARK  112  A    between atoms: _264  and  _265
REMARK  113  A    between atoms: _268  and  _270
REMARK  114  A    between atoms: _270  and  _271
REMARK  115  A    between atoms: _270  and  _273
REMARK  116  A    between atoms: _273  and  _274
REMARK  117  A    between atoms: _277  and  _279
REMARK  118  A    between atoms: _279  and  _280
REMARK  119  A    between atoms: _279  and  _282
REMARK  120  A    between atoms: _282  and  _283
REMARK  121  A    between atoms: _283  and  _284
REMARK  122  A    between atoms: _284  and  _285
REMARK  123  A    between atoms: _285  and  _286
REMARK  124  A    between atoms: _290  and  _292
REMARK  125  A    between atoms: _292  and  _293
REMARK  126  A    between atoms: _292  and  _295
REMARK  127  A    between atoms: _295  and  _296
REMARK  128  A    between atoms: _299  and  _301
REMARK  129  A    between atoms: _301  and  _302
REMARK  130  A    between atoms: _305  and  _307
REMARK  131  A    between atoms: _307  and  _308
REMARK  132  A    between atoms: _311  and  _313
REMARK  133  A    between atoms: _313  and  _314
REMARK  134  A    between atoms: _313  and  _316
REMARK  135  A    between atoms: _316  and  _317
REMARK  136  A    between atoms: _321  and  _322
REMARK  137  A    between atoms: _327  and  _329
REMARK  138  A    between atoms: _329  and  _330
REMARK  139  A    between atoms: _329  and  _332
REMARK  140  A    between atoms: _332  and  _333
REMARK  141  A    between atoms: _338  and  _340
REMARK  142  A    between atoms: _340  and  _341
REMARK  143  A    between atoms: _340  and  _343
REMARK  144  A    between atoms: _343  and  _344
REMARK  145  A    between atoms: _347  and  _349
REMARK  146  A    between atoms: _349  and  _350
REMARK  147  A    between atoms: _349  and  _352
REMARK  148  A    between atoms: _352  and  _353
REMARK  149  A    between atoms: _359  and  _361
REMARK  150  A    between atoms: _361  and  _362
REMARK  151  A    between atoms: _361  and  _364
REMARK  152  A    between atoms: _367  and  _369
REMARK  153  A    between atoms: _369  and  _370
REMARK  154  A    between atoms: _369  and  _372
REMARK  155  A    between atoms: _375  and  _377
REMARK  156  A    between atoms: _377  and  _378
REMARK  157  A    between atoms: _380  and  _382
REMARK  158  A    between atoms: _382  and  _383
REMARK  159  A    between atoms: _385  and  _387
REMARK  160  A    between atoms: _387  and  _388
REMARK  161  A    between atoms: _387  and  _390
REMARK  162  A    between atoms: _390  and  _391
REMARK  163  A    between atoms: _394  and  _396
REMARK  164  A    between atoms: _396  and  _397
REMARK  165  A    between atoms: _396  and  _399
REMARK  166  A    between atoms: _399  and  _400
REMARK  167  A    between atoms: _400  and  _402
REMARK  168  A    between atoms: _402  and  MG_565
REMARK  169  A    between atoms: _403  and  _405
REMARK  170  A    between atoms: _405  and  _406
REMARK  171  A    between atoms: _405  and  _408
REMARK  172  A    between atoms: _408  and  _409
REMARK  173  A    between atoms: _414  and  _415
REMARK  174  A    between atoms: _417  and  _419
REMARK  175  A    between atoms: _419  and  _420
REMARK  176  A    between atoms: _419  and  _422
REMARK  177  A    between atoms: _422  and  _423
REMARK  178  A    between atoms: _426  and  _428
REMARK  179  A    between atoms: _428  and  _429
REMARK  180  A    between atoms: _428  and  _431
REMARK  181  A    between atoms: _431  and  _432
REMARK  182  A    between atoms: _432  and  _433
REMARK  183  A    between atoms: _436  and  _438
REMARK  184  A    between atoms: _438  and  _439
REMARK  185  A    between atoms: _438  and  _441
REMARK  186  A    between atoms: _441  and  _442
REMARK  187  A    between atoms: _442  and  _443
REMARK  188  A    between atoms: _443  and  _444
REMARK  189  A    between atoms: _453  and  _455
REMARK  190  A    between atoms: _455  and  _456
REMARK  191  A    between atoms: _455  and  _458
REMARK  192  A    between atoms: _458  and  _459
REMARK  193  A    between atoms: _464  and  _465
REMARK  194  A    between atoms: _467  and  _469
REMARK  195  A    between atoms: _469  and  _470
REMARK  196  A    between atoms: _469  and  _472
REMARK  197  A    between atoms: _472  and  _473
REMARK  198  A    between atoms: _473  and  _474
REMARK  199  A    between atoms: _474  and  _475
REMARK  200  A    between atoms: _484  and  _486
REMARK  201  A    between atoms: _486  and  _487
REMARK  202  A    between atoms: _486  and  _489
REMARK  203  A    between atoms: _489  and  _490
REMARK  204  A    between atoms: _493  and  _495
REMARK  205  A    between atoms: _495  and  _496
REMARK  206  A    between atoms: _498  and  _500
REMARK  207  A    between atoms: _500  and  _501
REMARK  208  A    between atoms: _500  and  _503
REMARK  209  A    between atoms: _503  and  _504
REMARK  210  A    between atoms: _507  and  _509
REMARK  211  A    between atoms: _509  and  _510
REMARK  212  A    between atoms: _509  and  _512
REMARK  213  A    between atoms: _512  and  _513
REMARK  214  A    between atoms: _518  and  _519
REMARK  215  A    between atoms: _521  and  _523
REMARK  216  A    between atoms: _523  and  _524
REMARK  217  A    between atoms: _523  and  _526
REMARK  218  A    between atoms: _526  and  _527
REMARK  219  A    between atoms: _533  and  _535
REMARK  220  A    between atoms: _535  and  _536
REMARK  221  A    between atoms: _535  and  _538
REMARK  222  A    between atoms: _538  and  _539
REMARK  223  A    between atoms: _545  and  _547
REMARK  224  A    between atoms: _547  and  _548
REMARK  225  A    between atoms: _547  and  _550
REMARK  226  A    between atoms: _550  and  _551
REMARK  227  A    between atoms: _554  and  _556
REMARK  228  A    between atoms: _556  and  _557
REMARK  229  A    between atoms: _556  and  _559
REMARK  230  A    between atoms: _559  and  _560
REMARK                            x       y       z     vdW  Elec       q    Type
REMARK                         _______ _______ _______ _____ _____    ______ ____
ROOT
ATOM      1  O   HOH     1       1.189  18.488 123.777  0.00  0.00    +0.000 OA
ENDROOT
TORSDOF 0
REMARK  Name = ../refined-set-2016/4rhx/4rhx_pocket.pdb
REMARK  230 active torsions:
REMARK  status: ('A' for Active; 'I' for Inactive)
REMARK    1  A    between atoms: _1  and  _3
REMARK    2  A    between atoms: _3  and  _4
REMARK    3  A    between atoms: _3  and  _6
REMARK    4  A    between atoms: _6  and  _7
REMARK    5  A    between atoms: _10  and  _12
REMARK    6  A    between atoms: _12  and  _13
REMARK    7  A    between atoms: _12  and  _15
REMARK    8  A    between atoms: _18  and  _20
REMARK    9  A    between atoms: _20  and  _21
REMARK   10  A    between atoms: _20  and  _23
REMARK   11  A    between atoms: _23  and  _24
REMARK   12  A    between atoms: _27  and  _29
REMARK   13  A    between atoms: _29  and  _30
REMARK   14  A    between atoms: _29  and  _32
REMARK   15  A    between atoms: _32  and  _33
REMARK   16  A    between atoms: _33  and  _34
REMARK   17  A    between atoms: _34  and  _35
REMARK   18  A    between atoms: _35  and  _36
REMARK   19  A    between atoms: _40  and  _42
REMARK   20  A    between atoms: _42  and  _43
REMARK   21  A    between atoms: _45  and  _47
REMARK   22  A    between atoms: _47  and  _48
REMARK   23  A    between atoms: _51  and  _53
REMARK   24  A    between atoms: _53  and  _54
REMARK   25  A    between atoms: _53  and  _56
REMARK   26  A    between atoms: _59  and  _61
REMARK   27  A    between atoms: _61  and  _62
REMARK   28  A    between atoms: _61  and  _64
REMARK   29  A    between atoms: _64  and  _65
REMARK   30  A    between atoms: _65  and  _66
REMARK   31  A    between atoms: _68  and  _70
REMARK   32  A    between atoms: _70  and  _71
REMARK   33  A    between atoms: _74  and  _76
REMARK   34  A    between atoms: _76  and  _77
REMARK   35  A    between atoms: _76  and  _79
REMARK   36  A    between atoms: _82  and  _84
REMARK   37  A    between atoms: _84  and  _85
REMARK   38  A    between atoms: _84  and  _87
REMARK   39  A    between atoms: _87  and  _88
REMARK   40  A    between atoms: _90  and  _92
REMARK   41  A    between atoms: _92  and  _93
REMARK   42  A    between atoms: _92  and  _95
REMARK   43  A    between atoms: _95  and  _96
REMARK   44  A    between atoms: _98  and  _100
REMARK   45  A    between atoms: _100  and  _101
REMARK   46  A    between atoms: _100  and  _103
REMARK   47  A    between atoms: _103  and  _104
REMARK   48  A    between atoms: _109  and  _110
REMARK   49  A    between atoms: _112  and  _114
REMARK   50  A    between atoms: _114  and  _115
REMARK   51  A    between atoms: _117  and  _119
REMARK   52  A    between atoms: _119  and  _120
REMARK   53  A    between atoms: _119  and  _122
REMARK   54  A    between atoms: _125  and  _127
REMARK   55  A    between atoms: _127  and  _128
REMARK   56  A    between atoms: _127  and  _130
REMARK   57  A    between atoms: _130  and  _131
REMARK   58  A    between atoms: _131  and  _132
REMARK   59  A    between atoms: _132  and  _133
REMARK   60  A    between atoms: _142  and  _144
REMARK   61  A    between atoms: _144  and  _145
REMARK   62  A    between atoms: _144  and  _147
REMARK   63  A    between atoms: _147  and  _148
REMARK   64  A    between atoms: _151  and  _153
REMARK   65  A    between atoms: _153  and  _154
REMARK   66  A    between atoms: _153  and  _156
REMARK   67  A    between atoms: _156  and  _157
REMARK   68  A    between atoms: _157  and  _158
REMARK   69  A    between atoms: _161  and  _163
REMARK   70  A    between atoms: _163  and  _164
REMARK   71  A    between atoms: _163  and  _166
REMARK   72  A    between atoms: _166  and  _167
REMARK   73  A    between atoms: _170  and  _172
REMARK   74  A    between atoms: _172  and  _173
REMARK   75  A    between atoms: _172  and  _175
REMARK   76  A    between atoms: _178  and  _180
REMARK   77  A    between atoms: _180  and  _181
REMARK   78  A    between atoms: _180  and  _183
REMARK   79  A    between atoms: _186  and  _188
REMARK   80  A    between atoms: _188  and  _189
REMARK   81  A    between atoms: _188  and  _191
REMARK   82  A    between atoms: _191  and  _192
REMARK   83  A    between atoms: _195  and  _197
REMARK   84  A    between atoms: _197  and  _198
REMARK   85  A    between atoms: _197  and  _200
REMARK   86  A    between atoms: _200  and  _201
REMARK   87  A    between atoms: _203  and  _205
REMARK   88  A    between atoms: _205  and  _206
REMARK   89  A    between atoms: _208  and  _210
REMARK   90  A    between atoms: _210  and  _211
REMARK   91  A    between atoms: _210  and  _213
REMARK   92  A    between atoms: _213  and  _214
REMARK   93  A    between atoms: _217  and  _219
REMARK   94  A    between atoms: _219  and  _220
REMARK   95  A    between atoms: _219  and  _222
REMARK   96  A    between atoms: _222  and  _223
REMARK   97  A    between atoms: _226  and  _228
REMARK   98  A    between atoms: _228  and  _229
REMARK   99  A    between atoms: _228  and  _231
REMARK  100  A    between atoms: _231  and  _232
REMARK  101  A    between atoms: _235  and  _237
REMARK  102  A    between atoms: _237  and  _238
REMARK  103  A    between atoms: _237  and  _240
REMARK  104  A    between atoms: _240  and  _241
REMARK  105  A    between atoms: _243  and  _245
REMARK  106  A    between atoms: _245  and  _246
REMARK  107  A    between atoms: _245  and  _248
REMARK  108  A    between atoms: _248  and  _249
REMARK  109  A    between atoms: _259  and  _261
REMARK  110  A    between atoms: _261  and  _262
REMARK  111  A    between atoms: _261  and  _264
REMARK  112  A    between atoms: _264  and  _265
REMARK  113  A    between atoms: _268  and  _270
REMARK  114  A    between atoms: _270  and  _271
REMARK  115  A    between atoms: _270  and  _273
REMARK  116  A    between atoms: _273  and  _274
REMARK  117  A    between atoms: _277  and  _279
REMARK  118  A    between atoms: _279  and  _280
REMARK  119  A    between atoms: _279  and  _282
REMARK  120  A    between atoms: _282  and  _283
REMARK  121  A    between atoms: _283  and  _284
REMARK  122  A    between atoms: _284  and  _285
REMARK  123  A    between atoms: _285  and  _286
REMARK  124  A    between atoms: _290  and  _292
REMARK  125  A    between atoms: _292  and  _293
REMARK  126  A    between atoms: _292  and  _295
REMARK  127  A    between atoms: _295  and  _296
REMARK  128  A    between atoms: _299  and  _301
REMARK  129  A    between atoms: _301  and  _302
REMARK  130  A    between atoms: _305  and  _307
REMARK  131  A    between atoms: _307  and  _308
REMARK  132  A    between atoms: _311  and  _313
REMARK  133  A    between atoms: _313  and  _314
REMARK  134  A    between atoms: _313  and  _316
REMARK  135  A    between atoms: _316  and  _317
REMARK  136  A    between atoms: _321  and  _322
REMARK  137  A    between atoms: _327  and  _329
REMARK  138  A    between atoms: _329  and  _330
REMARK  139  A    between atoms: _329  and  _332
REMARK  140  A    between atoms: _332  and  _333
REMARK  141  A    between atoms: _338  and  _340
REMARK  142  A    between atoms: _340  and  _341
REMARK  143  A    between atoms: _340  and  _343
REMARK  144  A    between atoms: _343  and  _344
REMARK  145  A    between atoms: _347  and  _349
REMARK  146  A    between atoms: _349  and  _350
REMARK  147  A    between atoms: _349  and  _352
REMARK  148  A    between atoms: _352  and  _353
REMARK  149  A    between atoms: _359  and  _361
REMARK  150  A    between atoms: _361  and  _362
REMARK  151  A    between atoms: _361  and  _364
REMARK  152  A    between atoms: _367  and  _369
REMARK  153  A    between atoms: _369  and  _370
REMARK  154  A    between atoms: _369  and  _372
REMARK  155  A    between atoms: _375  and  _377
REMARK  156  A    between atoms: _377  and  _378
REMARK  157  A    between atoms: _380  and  _382
REMARK  158  A    between atoms: _382  and  _383
REMARK  159  A    between atoms: _385  and  _387
REMARK  160  A    between atoms: _387  and  _388
REMARK  161  A    between atoms: _387  and  _390
REMARK  162  A    between atoms: _390  and  _391
REMARK  163  A    between atoms: _394  and  _396
REMARK  164  A    between atoms: _396  and  _397
REMARK  165  A    between atoms: _396  and  _399
REMARK  166  A    between atoms: _399  and  _400
REMARK  167  A    between atoms: _400  and  _402
REMARK  168  A    between atoms: _402  and  MG_565
REMARK  169  A    between atoms: _403  and  _405
REMARK  170  A    between atoms: _405  and  _406
REMARK  171  A    between atoms: _405  and  _408
REMARK  172  A    between atoms: _408  and  _409
REMARK  173  A    between atoms: _414  and  _415
REMARK  174  A    between atoms: _417  and  _419
REMARK  175  A    between atoms: _419  and  _420
REMARK  176  A    between atoms: _419  and  _422
REMARK  177  A    between atoms: _422  and  _423
REMARK  178  A    between atoms: _426  and  _428
REMARK  179  A    between atoms: _428  and  _429
REMARK  180  A    between atoms: _428  and  _431
REMARK  181  A    between atoms: _431  and  _432
REMARK  182  A    between atoms: _432  and  _433
REMARK  183  A    between atoms: _436  and  _438
REMARK  184  A    between atoms: _438  and  _439
REMARK  185  A    between atoms: _438  and  _441
REMARK  186  A    between atoms: _441  and  _442
REMARK  187  A    between atoms: _442  and  _443
REMARK  188  A    between atoms: _443  and  _444
REMARK  189  A    between atoms: _453  and  _455
REMARK  190  A    between atoms: _455  and  _456
REMARK  191  A    between atoms: _455  and  _458
REMARK  192  A    between atoms: _458  and  _459
REMARK  193  A    between atoms: _464  and  _465
REMARK  194  A    between atoms: _467  and  _469
REMARK  195  A    between atoms: _469  and  _470
REMARK  196  A    between atoms: _469  and  _472
REMARK  197  A    between atoms: _472  and  _473
REMARK  198  A    between atoms: _473  and  _474
REMARK  199  A    between atoms: _474  and  _475
REMARK  200  A    between atoms: _484  and  _486
REMARK  201  A    between atoms: _486  and  _487
REMARK  202  A    between atoms: _486  and  _489
REMARK  203  A    between atoms: _489  and  _490
REMARK  204  A    between atoms: _493  and  _495
REMARK  205  A    between atoms: _495  and  _496
REMARK  206  A    between atoms: _498  and  _500
REMARK  207  A    between atoms: _500  and  _501
REMARK  208  A    between atoms: _500  and  _503
REMARK  209  A    between atoms: _503  and  _504
REMARK  210  A    between atoms: _507  and  _509
REMARK  211  A    between atoms: _509  and  _510
REMARK  212  A    between atoms: _509  and  _512
REMARK  213  A    between atoms: _512  and  _513
REMARK  214  A    between atoms: _518  and  _519
REMARK  215  A    between atoms: _521  and  _523
REMARK  216  A    between atoms: _523  and  _524
REMARK  217  A    between atoms: _523  and  _526
REMARK  218  A    between atoms: _526  and  _527
REMARK  219  A    between atoms: _533  and  _535
REMARK  220  A    between atoms: _535  and  _536
REMARK  221  A    between atoms: _535  and  _538
REMARK  222  A    between atoms: _538  and  _539
REMARK  223  A    between atoms: _545  and  _547
REMARK  224  A    between atoms: _547  and  _548
REMARK  225  A    between atoms: _547  and  _550
REMARK  226  A    between atoms: _550  and  _551
REMARK  227  A    between atoms: _554  and  _556
REMARK  228  A    between atoms: _556  and  _557
REMARK  229  A    between atoms: _556  and  _559
REMARK  230  A    between atoms: _559  and  _560
REMARK                            x       y       z     vdW  Elec       q    Type
REMARK                         _______ _______ _______ _____ _____    ______ ____
ROOT
ATOM      1  O   HOH     1      -1.587  21.572 124.338  0.00  0.00    +0.000 OA
ENDROOT
TORSDOF 0
REMARK  Name = ../refined-set-2016/4rhx/4rhx_pocket.pdb
REMARK  230 active torsions:
REMARK  status: ('A' for Active; 'I' for Inactive)
REMARK    1  A    between atoms: _1  and  _3
REMARK    2  A    between atoms: _3  and  _4
REMARK    3  A    between atoms: _3  and  _6
REMARK    4  A    between atoms: _6  and  _7
REMARK    5  A    between atoms: _10  and  _12
REMARK    6  A    between atoms: _12  and  _13
REMARK    7  A    between atoms: _12  and  _15
REMARK    8  A    between atoms: _18  and  _20
REMARK    9  A    between atoms: _20  and  _21
REMARK   10  A    between atoms: _20  and  _23
REMARK   11  A    between atoms: _23  and  _24
REMARK   12  A    between atoms: _27  and  _29
REMARK   13  A    between atoms: _29  and  _30
REMARK   14  A    between atoms: _29  and  _32
REMARK   15  A    between atoms: _32  and  _33
REMARK   16  A    between atoms: _33  and  _34
REMARK   17  A    between atoms: _34  and  _35
REMARK   18  A    between atoms: _35  and  _36
REMARK   19  A    between atoms: _40  and  _42
REMARK   20  A    between atoms: _42  and  _43
REMARK   21  A    between atoms: _45  and  _47
REMARK   22  A    between atoms: _47  and  _48
REMARK   23  A    between atoms: _51  and  _53
REMARK   24  A    between atoms: _53  and  _54
REMARK   25  A    between atoms: _53  and  _56
REMARK   26  A    between atoms: _59  and  _61
REMARK   27  A    between atoms: _61  and  _62
REMARK   28  A    between atoms: _61  and  _64
REMARK   29  A    between atoms: _64  and  _65
REMARK   30  A    between atoms: _65  and  _66
REMARK   31  A    between atoms: _68  and  _70
REMARK   32  A    between atoms: _70  and  _71
REMARK   33  A    between atoms: _74  and  _76
REMARK   34  A    between atoms: _76  and  _77
REMARK   35  A    between atoms: _76  and  _79
REMARK   36  A    between atoms: _82  and  _84
REMARK   37  A    between atoms: _84  and  _85
REMARK   38  A    between atoms: _84  and  _87
REMARK   39  A    between atoms: _87  and  _88
REMARK   40  A    between atoms: _90  and  _92
REMARK   41  A    between atoms: _92  and  _93
REMARK   42  A    between atoms: _92  and  _95
REMARK   43  A    between atoms: _95  and  _96
REMARK   44  A    between atoms: _98  and  _100
REMARK   45  A    between atoms: _100  and  _101
REMARK   46  A    between atoms: _100  and  _103
REMARK   47  A    between atoms: _103  and  _104
REMARK   48  A    between atoms: _109  and  _110
REMARK   49  A    between atoms: _112  and  _114
REMARK   50  A    between atoms: _114  and  _115
REMARK   51  A    between atoms: _117  and  _119
REMARK   52  A    between atoms: _119  and  _120
REMARK   53  A    between atoms: _119  and  _122
REMARK   54  A    between atoms: _125  and  _127
REMARK   55  A    between atoms: _127  and  _128
REMARK   56  A    between atoms: _127  and  _130
REMARK   57  A    between atoms: _130  and  _131
REMARK   58  A    between atoms: _131  and  _132
REMARK   59  A    between atoms: _132  and  _133
REMARK   60  A    between atoms: _142  and  _144
REMARK   61  A    between atoms: _144  and  _145
REMARK   62  A    between atoms: _144  and  _147
REMARK   63  A    between atoms: _147  and  _148
REMARK   64  A    between atoms: _151  and  _153
REMARK   65  A    between atoms: _153  and  _154
REMARK   66  A    between atoms: _153  and  _156
REMARK   67  A    between atoms: _156  and  _157
REMARK   68  A    between atoms: _157  and  _158
REMARK   69  A    between atoms: _161  and  _163
REMARK   70  A    between atoms: _163  and  _164
REMARK   71  A    between atoms: _163  and  _166
REMARK   72  A    between atoms: _166  and  _167
REMARK   73  A    between atoms: _170  and  _172
REMARK   74  A    between atoms: _172  and  _173
REMARK   75  A    between atoms: _172  and  _175
REMARK   76  A    between atoms: _178  and  _180
REMARK   77  A    between atoms: _180  and  _181
REMARK   78  A    between atoms: _180  and  _183
REMARK   79  A    between atoms: _186  and  _188
REMARK   80  A    between atoms: _188  and  _189
REMARK   81  A    between atoms: _188  and  _191
REMARK   82  A    between atoms: _191  and  _192
REMARK   83  A    between atoms: _195  and  _197
REMARK   84  A    between atoms: _197  and  _198
REMARK   85  A    between atoms: _197  and  _200
REMARK   86  A    between atoms: _200  and  _201
REMARK   87  A    between atoms: _203  and  _205
REMARK   88  A    between atoms: _205  and  _206
REMARK   89  A    between atoms: _208  and  _210
REMARK   90  A    between atoms: _210  and  _211
REMARK   91  A    between atoms: _210  and  _213
REMARK   92  A    between atoms: _213  and  _214
REMARK   93  A    between atoms: _217  and  _219
REMARK   94  A    between atoms: _219  and  _220
REMARK   95  A    between atoms: _219  and  _222
REMARK   96  A    between atoms: _222  and  _223
REMARK   97  A    between atoms: _226  and  _228
REMARK   98  A    between atoms: _228  and  _229
REMARK   99  A    between atoms: _228  and  _231
REMARK  100  A    between atoms: _231  and  _232
REMARK  101  A    between atoms: _235  and  _237
REMARK  102  A    between atoms: _237  and  _238
REMARK  103  A    between atoms: _237  and  _240
REMARK  104  A    between atoms: _240  and  _241
REMARK  105  A    between atoms: _243  and  _245
REMARK  106  A    between atoms: _245  and  _246
REMARK  107  A    between atoms: _245  and  _248
REMARK  108  A    between atoms: _248  and  _249
REMARK  109  A    between atoms: _259  and  _261
REMARK  110  A    between atoms: _261  and  _262
REMARK  111  A    between atoms: _261  and  _264
REMARK  112  A    between atoms: _264  and  _265
REMARK  113  A    between atoms: _268  and  _270
REMARK  114  A    between atoms: _270  and  _271
REMARK  115  A    between atoms: _270  and  _273
REMARK  116  A    between atoms: _273  and  _274
REMARK  117  A    between atoms: _277  and  _279
REMARK  118  A    between atoms: _279  and  _280
REMARK  119  A    between atoms: _279  and  _282
REMARK  120  A    between atoms: _282  and  _283
REMARK  121  A    between atoms: _283  and  _284
REMARK  122  A    between atoms: _284  and  _285
REMARK  123  A    between atoms: _285  and  _286
REMARK  124  A    between atoms: _290  and  _292
REMARK  125  A    between atoms: _292  and  _293
REMARK  126  A    between atoms: _292  and  _295
REMARK  127  A    between atoms: _295  and  _296
REMARK  128  A    between atoms: _299  and  _301
REMARK  129  A    between atoms: _301  and  _302
REMARK  130  A    between atoms: _305  and  _307
REMARK  131  A    between atoms: _307  and  _308
REMARK  132  A    between atoms: _311  and  _313
REMARK  133  A    between atoms: _313  and  _314
REMARK  134  A    between atoms: _313  and  _316
REMARK  135  A    between atoms: _316  and  _317
REMARK  136  A    between atoms: _321  and  _322
REMARK  137  A    between atoms: _327  and  _329
REMARK  138  A    between atoms: _329  and  _330
REMARK  139  A    between atoms: _329  and  _332
REMARK  140  A    between atoms: _332  and  _333
REMARK  141  A    between atoms: _338  and  _340
REMARK  142  A    between atoms: _340  and  _341
REMARK  143  A    between atoms: _340  and  _343
REMARK  144  A    between atoms: _343  and  _344
REMARK  145  A    between atoms: _347  and  _349
REMARK  146  A    between atoms: _349  and  _350
REMARK  147  A    between atoms: _349  and  _352
REMARK  148  A    between atoms: _352  and  _353
REMARK  149  A    between atoms: _359  and  _361
REMARK  150  A    between atoms: _361  and  _362
REMARK  151  A    between atoms: _361  and  _364
REMARK  152  A    between atoms: _367  and  _369
REMARK  153  A    between atoms: _369  and  _370
REMARK  154  A    between atoms: _369  and  _372
REMARK  155  A    between atoms: _375  and  _377
REMARK  156  A    between atoms: _377  and  _378
REMARK  157  A    between atoms: _380  and  _382
REMARK  158  A    between atoms: _382  and  _383
REMARK  159  A    between atoms: _385  and  _387
REMARK  160  A    between atoms: _387  and  _388
REMARK  161  A    between atoms: _387  and  _390
REMARK  162  A    between atoms: _390  and  _391
REMARK  163  A    between atoms: _394  and  _396
REMARK  164  A    between atoms: _396  and  _397
REMARK  165  A    between atoms: _396  and  _399
REMARK  166  A    between atoms: _399  and  _400
REMARK  167  A    between atoms: _400  and  _402
REMARK  168  A    between atoms: _402  and  MG_565
REMARK  169  A    between atoms: _403  and  _405
REMARK  170  A    between atoms: _405  and  _406
REMARK  171  A    between atoms: _405  and  _408
REMARK  172  A    between atoms: _408  and  _409
REMARK  173  A    between atoms: _414  and  _415
REMARK  174  A    between atoms: _417  and  _419
REMARK  175  A    between atoms: _419  and  _420
REMARK  176  A    between atoms: _419  and  _422
REMARK  177  A    between atoms: _422  and  _423
REMARK  178  A    between atoms: _426  and  _428
REMARK  179  A    between atoms: _428  and  _429
REMARK  180  A    between atoms: _428  and  _431
REMARK  181  A    between atoms: _431  and  _432
REMARK  182  A    between atoms: _432  and  _433
REMARK  183  A    between atoms: _436  and  _438
REMARK  184  A    between atoms: _438  and  _439
REMARK  185  A    between atoms: _438  and  _441
REMARK  186  A    between atoms: _441  and  _442
REMARK  187  A    between atoms: _442  and  _443
REMARK  188  A    between atoms: _443  and  _444
REMARK  189  A    between atoms: _453  and  _455
REMARK  190  A    between atoms: _455  and  _456
REMARK  191  A    between atoms: _455  and  _458
REMARK  192  A    between atoms: _458  and  _459
REMARK  193  A    between atoms: _464  and  _465
REMARK  194  A    between atoms: _467  and  _469
REMARK  195  A    between atoms: _469  and  _470
REMARK  196  A    between atoms: _469  and  _472
REMARK  197  A    between atoms: _472  and  _473
REMARK  198  A    between atoms: _473  and  _474
REMARK  199  A    between atoms: _474  and  _475
REMARK  200  A    between atoms: _484  and  _486
REMARK  201  A    between atoms: _486  and  _487
REMARK  202  A    between atoms: _486  and  _489
REMARK  203  A    between atoms: _489  and  _490
REMARK  204  A    between atoms: _493  and  _495
REMARK  205  A    between atoms: _495  and  _496
REMARK  206  A    between atoms: _498  and  _500
REMARK  207  A    between atoms: _500  and  _501
REMARK  208  A    between atoms: _500  and  _503
REMARK  209  A    between atoms: _503  and  _504
REMARK  210  A    between atoms: _507  and  _509
REMARK  211  A    between atoms: _509  and  _510
REMARK  212  A    between atoms: _509  and  _512
REMARK  213  A    between atoms: _512  and  _513
REMARK  214  A    between atoms: _518  and  _519
REMARK  215  A    between atoms: _521  and  _523
REMARK  216  A    between atoms: _523  and  _524
REMARK  217  A    between atoms: _523  and  _526
REMARK  218  A    between atoms: _526  and  _527
REMARK  219  A    between atoms: _533  and  _535
REMARK  220  A    between atoms: _535  and  _536
REMARK  221  A    between atoms: _535  and  _538
REMARK  222  A    between atoms: _538  and  _539
REMARK  223  A    between atoms: _545  and  _547
REMARK  224  A    between atoms: _547  and  _548
REMARK  225  A    between atoms: _547  and  _550
REMARK  226  A    between atoms: _550  and  _551
REMARK  227  A    between atoms: _554  and  _556
REMARK  228  A    between atoms: _556  and  _557
REMARK  229  A    between atoms: _556  and  _559
REMARK  230  A    between atoms: _559  and  _560
REMARK                            x       y       z     vdW  Elec       q    Type
REMARK                         _______ _______ _______ _____ _____    ______ ____
ROOT
ATOM      1  O   HOH     1       0.650  18.819 131.041  0.00  0.00    +0.000 OA
ENDROOT
TORSDOF 0
REMARK  Name = ../refined-set-2016/4rhx/4rhx_pocket.pdb
REMARK  230 active torsions:
REMARK  status: ('A' for Active; 'I' for Inactive)
REMARK    1  A    between atoms: _1  and  _3
REMARK    2  A    between atoms: _3  and  _4
REMARK    3  A    between atoms: _3  and  _6
REMARK    4  A    between atoms: _6  and  _7
REMARK    5  A    between atoms: _10  and  _12
REMARK    6  A    between atoms: _12  and  _13
REMARK    7  A    between atoms: _12  and  _15
REMARK    8  A    between atoms: _18  and  _20
REMARK    9  A    between atoms: _20  and  _21
REMARK   10  A    between atoms: _20  and  _23
REMARK   11  A    between atoms: _23  and  _24
REMARK   12  A    between atoms: _27  and  _29
REMARK   13  A    between atoms: _29  and  _30
REMARK   14  A    between atoms: _29  and  _32
REMARK   15  A    between atoms: _32  and  _33
REMARK   16  A    between atoms: _33  and  _34
REMARK   17  A    between atoms: _34  and  _35
REMARK   18  A    between atoms: _35  and  _36
REMARK   19  A    between atoms: _40  and  _42
REMARK   20  A    between atoms: _42  and  _43
REMARK   21  A    between atoms: _45  and  _47
REMARK   22  A    between atoms: _47  and  _48
REMARK   23  A    between atoms: _51  and  _53
REMARK   24  A    between atoms: _53  and  _54
REMARK   25  A    between atoms: _53  and  _56
REMARK   26  A    between atoms: _59  and  _61
REMARK   27  A    between atoms: _61  and  _62
REMARK   28  A    between atoms: _61  and  _64
REMARK   29  A    between atoms: _64  and  _65
REMARK   30  A    between atoms: _65  and  _66
REMARK   31  A    between atoms: _68  and  _70
REMARK   32  A    between atoms: _70  and  _71
REMARK   33  A    between atoms: _74  and  _76
REMARK   34  A    between atoms: _76  and  _77
REMARK   35  A    between atoms: _76  and  _79
REMARK   36  A    between atoms: _82  and  _84
REMARK   37  A    between atoms: _84  and  _85
REMARK   38  A    between atoms: _84  and  _87
REMARK   39  A    between atoms: _87  and  _88
REMARK   40  A    between atoms: _90  and  _92
REMARK   41  A    between atoms: _92  and  _93
REMARK   42  A    between atoms: _92  and  _95
REMARK   43  A    between atoms: _95  and  _96
REMARK   44  A    between atoms: _98  and  _100
REMARK   45  A    between atoms: _100  and  _101
REMARK   46  A    between atoms: _100  and  _103
REMARK   47  A    between atoms: _103  and  _104
REMARK   48  A    between atoms: _109  and  _110
REMARK   49  A    between atoms: _112  and  _114
REMARK   50  A    between atoms: _114  and  _115
REMARK   51  A    between atoms: _117  and  _119
REMARK   52  A    between atoms: _119  and  _120
REMARK   53  A    between atoms: _119  and  _122
REMARK   54  A    between atoms: _125  and  _127
REMARK   55  A    between atoms: _127  and  _128
REMARK   56  A    between atoms: _127  and  _130
REMARK   57  A    between atoms: _130  and  _131
REMARK   58  A    between atoms: _131  and  _132
REMARK   59  A    between atoms: _132  and  _133
REMARK   60  A    between atoms: _142  and  _144
REMARK   61  A    between atoms: _144  and  _145
REMARK   62  A    between atoms: _144  and  _147
REMARK   63  A    between atoms: _147  and  _148
REMARK   64  A    between atoms: _151  and  _153
REMARK   65  A    between atoms: _153  and  _154
REMARK   66  A    between atoms: _153  and  _156
REMARK   67  A    between atoms: _156  and  _157
REMARK   68  A    between atoms: _157  and  _158
REMARK   69  A    between atoms: _161  and  _163
REMARK   70  A    between atoms: _163  and  _164
REMARK   71  A    between atoms: _163  and  _166
REMARK   72  A    between atoms: _166  and  _167
REMARK   73  A    between atoms: _170  and  _172
REMARK   74  A    between atoms: _172  and  _173
REMARK   75  A    between atoms: _172  and  _175
REMARK   76  A    between atoms: _178  and  _180
REMARK   77  A    between atoms: _180  and  _181
REMARK   78  A    between atoms: _180  and  _183
REMARK   79  A    between atoms: _186  and  _188
REMARK   80  A    between atoms: _188  and  _189
REMARK   81  A    between atoms: _188  and  _191
REMARK   82  A    between atoms: _191  and  _192
REMARK   83  A    between atoms: _195  and  _197
REMARK   84  A    between atoms: _197  and  _198
REMARK   85  A    between atoms: _197  and  _200
REMARK   86  A    between atoms: _200  and  _201
REMARK   87  A    between atoms: _203  and  _205
REMARK   88  A    between atoms: _205  and  _206
REMARK   89  A    between atoms: _208  and  _210
REMARK   90  A    between atoms: _210  and  _211
REMARK   91  A    between atoms: _210  and  _213
REMARK   92  A    between atoms: _213  and  _214
REMARK   93  A    between atoms: _217  and  _219
REMARK   94  A    between atoms: _219  and  _220
REMARK   95  A    between atoms: _219  and  _222
REMARK   96  A    between atoms: _222  and  _223
REMARK   97  A    between atoms: _226  and  _228
REMARK   98  A    between atoms: _228  and  _229
REMARK   99  A    between atoms: _228  and  _231
REMARK  100  A    between atoms: _231  and  _232
REMARK  101  A    between atoms: _235  and  _237
REMARK  102  A    between atoms: _237  and  _238
REMARK  103  A    between atoms: _237  and  _240
REMARK  104  A    between atoms: _240  and  _241
REMARK  105  A    between atoms: _243  and  _245
REMARK  106  A    between atoms: _245  and  _246
REMARK  107  A    between atoms: _245  and  _248
REMARK  108  A    between atoms: _248  and  _249
REMARK  109  A    between atoms: _259  and  _261
REMARK  110  A    between atoms: _261  and  _262
REMARK  111  A    between atoms: _261  and  _264
REMARK  112  A    between atoms: _264  and  _265
REMARK  113  A    between atoms: _268  and  _270
REMARK  114  A    between atoms: _270  and  _271
REMARK  115  A    between atoms: _270  and  _273
REMARK  116  A    between atoms: _273  and  _274
REMARK  117  A    between atoms: _277  and  _279
REMARK  118  A    between atoms: _279  and  _280
REMARK  119  A    between atoms: _279  and  _282
REMARK  120  A    between atoms: _282  and  _283
REMARK  121  A    between atoms: _283  and  _284
REMARK  122  A    between atoms: _284  and  _285
REMARK  123  A    between atoms: _285  and  _286
REMARK  124  A    between atoms: _290  and  _292
REMARK  125  A    between atoms: _292  and  _293
REMARK  126  A    between atoms: _292  and  _295
REMARK  127  A    between atoms: _295  and  _296
REMARK  128  A    between atoms: _299  and  _301
REMARK  129  A    between atoms: _301  and  _302
REMARK  130  A    between atoms: _305  and  _307
REMARK  131  A    between atoms: _307  and  _308
REMARK  132  A    between atoms: _311  and  _313
REMARK  133  A    between atoms: _313  and  _314
REMARK  134  A    between atoms: _313  and  _316
REMARK  135  A    between atoms: _316  and  _317
REMARK  136  A    between atoms: _321  and  _322
REMARK  137  A    between atoms: _327  and  _329
REMARK  138  A    between atoms: _329  and  _330
REMARK  139  A    between atoms: _329  and  _332
REMARK  140  A    between atoms: _332  and  _333
REMARK  141  A    between atoms: _338  and  _340
REMARK  142  A    between atoms: _340  and  _341
REMARK  143  A    between atoms: _340  and  _343
REMARK  144  A    between atoms: _343  and  _344
REMARK  145  A    between atoms: _347  and  _349
REMARK  146  A    between atoms: _349  and  _350
REMARK  147  A    between atoms: _349  and  _352
REMARK  148  A    between atoms: _352  and  _353
REMARK  149  A    between atoms: _359  and  _361
REMARK  150  A    between atoms: _361  and  _362
REMARK  151  A    between atoms: _361  and  _364
REMARK  152  A    between atoms: _367  and  _369
REMARK  153  A    between atoms: _369  and  _370
REMARK  154  A    between atoms: _369  and  _372
REMARK  155  A    between atoms: _375  and  _377
REMARK  156  A    between atoms: _377  and  _378
REMARK  157  A    between atoms: _380  and  _382
REMARK  158  A    between atoms: _382  and  _383
REMARK  159  A    between atoms: _385  and  _387
REMARK  160  A    between atoms: _387  and  _388
REMARK  161  A    between atoms: _387  and  _390
REMARK  162  A    between atoms: _390  and  _391
REMARK  163  A    between atoms: _394  and  _396
REMARK  164  A    between atoms: _396  and  _397
REMARK  165  A    between atoms: _396  and  _399
REMARK  166  A    between atoms: _399  and  _400
REMARK  167  A    between atoms: _400  and  _402
REMARK  168  A    between atoms: _402  and  MG_565
REMARK  169  A    between atoms: _403  and  _405
REMARK  170  A    between atoms: _405  and  _406
REMARK  171  A    between atoms: _405  and  _408
REMARK  172  A    between atoms: _408  and  _409
REMARK  173  A    between atoms: _414  and  _415
REMARK  174  A    between atoms: _417  and  _419
REMARK  175  A    between atoms: _419  and  _420
REMARK  176  A    between atoms: _419  and  _422
REMARK  177  A    between atoms: _422  and  _423
REMARK  178  A    between atoms: _426  and  _428
REMARK  179  A    between atoms: _428  and  _429
REMARK  180  A    between atoms: _428  and  _431
REMARK  181  A    between atoms: _431  and  _432
REMARK  182  A    between atoms: _432  and  _433
REMARK  183  A    between atoms: _436  and  _438
REMARK  184  A    between atoms: _438  and  _439
REMARK  185  A    between atoms: _438  and  _441
REMARK  186  A    between atoms: _441  and  _442
REMARK  187  A    between atoms: _442  and  _443
REMARK  188  A    between atoms: _443  and  _444
REMARK  189  A    between atoms: _453  and  _455
REMARK  190  A    between atoms: _455  and  _456
REMARK  191  A    between atoms: _455  and  _458
REMARK  192  A    between atoms: _458  and  _459
REMARK  193  A    between atoms: _464  and  _465
REMARK  194  A    between atoms: _467  and  _469
REMARK  195  A    between atoms: _469  and  _470
REMARK  196  A    between atoms: _469  and  _472
REMARK  197  A    between atoms: _472  and  _473
REMARK  198  A    between atoms: _473  and  _474
REMARK  199  A    between atoms: _474  and  _475
REMARK  200  A    between atoms: _484  and  _486
REMARK  201  A    between atoms: _486  and  _487
REMARK  202  A    between atoms: _486  and  _489
REMARK  203  A    between atoms: _489  and  _490
REMARK  204  A    between atoms: _493  and  _495
REMARK  205  A    between atoms: _495  and  _496
REMARK  206  A    between atoms: _498  and  _500
REMARK  207  A    between atoms: _500  and  _501
REMARK  208  A    between atoms: _500  and  _503
REMARK  209  A    between atoms: _503  and  _504
REMARK  210  A    between atoms: _507  and  _509
REMARK  211  A    between atoms: _509  and  _510
REMARK  212  A    between atoms: _509  and  _512
REMARK  213  A    between atoms: _512  and  _513
REMARK  214  A    between atoms: _518  and  _519
REMARK  215  A    between atoms: _521  and  _523
REMARK  216  A    between atoms: _523  and  _524
REMARK  217  A    between atoms: _523  and  _526
REMARK  218  A    between atoms: _526  and  _527
REMARK  219  A    between atoms: _533  and  _535
REMARK  220  A    between atoms: _535  and  _536
REMARK  221  A    between atoms: _535  and  _538
REMARK  222  A    between atoms: _538  and  _539
REMARK  223  A    between atoms: _545  and  _547
REMARK  224  A    between atoms: _547  and  _548
REMARK  225  A    between atoms: _547  and  _550
REMARK  226  A    between atoms: _550  and  _551
REMARK  227  A    between atoms: _554  and  _556
REMARK  228  A    between atoms: _556  and  _557
REMARK  229  A    between atoms: _556  and  _559
REMARK  230  A    between atoms: _559  and  _560
REMARK                            x       y       z     vdW  Elec       q    Type
REMARK                         _______ _______ _______ _____ _____    ______ ____
ROOT
ATOM      1  O   HOH     1      -1.018  16.806 122.498  0.00  0.00    +0.000 OA
ENDROOT
TORSDOF 0
REMARK  Name = ../refined-set-2016/4rhx/4rhx_pocket.pdb
REMARK  230 active torsions:
REMARK  status: ('A' for Active; 'I' for Inactive)
REMARK    1  A    between atoms: _1  and  _3
REMARK    2  A    between atoms: _3  and  _4
REMARK    3  A    between atoms: _3  and  _6
REMARK    4  A    between atoms: _6  and  _7
REMARK    5  A    between atoms: _10  and  _12
REMARK    6  A    between atoms: _12  and  _13
REMARK    7  A    between atoms: _12  and  _15
REMARK    8  A    between atoms: _18  and  _20
REMARK    9  A    between atoms: _20  and  _21
REMARK   10  A    between atoms: _20  and  _23
REMARK   11  A    between atoms: _23  and  _24
REMARK   12  A    between atoms: _27  and  _29
REMARK   13  A    between atoms: _29  and  _30
REMARK   14  A    between atoms: _29  and  _32
REMARK   15  A    between atoms: _32  and  _33
REMARK   16  A    between atoms: _33  and  _34
REMARK   17  A    between atoms: _34  and  _35
REMARK   18  A    between atoms: _35  and  _36
REMARK   19  A    between atoms: _40  and  _42
REMARK   20  A    between atoms: _42  and  _43
REMARK   21  A    between atoms: _45  and  _47
REMARK   22  A    between atoms: _47  and  _48
REMARK   23  A    between atoms: _51  and  _53
REMARK   24  A    between atoms: _53  and  _54
REMARK   25  A    between atoms: _53  and  _56
REMARK   26  A    between atoms: _59  and  _61
REMARK   27  A    between atoms: _61  and  _62
REMARK   28  A    between atoms: _61  and  _64
REMARK   29  A    between atoms: _64  and  _65
REMARK   30  A    between atoms: _65  and  _66
REMARK   31  A    between atoms: _68  and  _70
REMARK   32  A    between atoms: _70  and  _71
REMARK   33  A    between atoms: _74  and  _76
REMARK   34  A    between atoms: _76  and  _77
REMARK   35  A    between atoms: _76  and  _79
REMARK   36  A    between atoms: _82  and  _84
REMARK   37  A    between atoms: _84  and  _85
REMARK   38  A    between atoms: _84  and  _87
REMARK   39  A    between atoms: _87  and  _88
REMARK   40  A    between atoms: _90  and  _92
REMARK   41  A    between atoms: _92  and  _93
REMARK   42  A    between atoms: _92  and  _95
REMARK   43  A    between atoms: _95  and  _96
REMARK   44  A    between atoms: _98  and  _100
REMARK   45  A    between atoms: _100  and  _101
REMARK   46  A    between atoms: _100  and  _103
REMARK   47  A    between atoms: _103  and  _104
REMARK   48  A    between atoms: _109  and  _110
REMARK   49  A    between atoms: _112  and  _114
REMARK   50  A    between atoms: _114  and  _115
REMARK   51  A    between atoms: _117  and  _119
REMARK   52  A    between atoms: _119  and  _120
REMARK   53  A    between atoms: _119  and  _122
REMARK   54  A    between atoms: _125  and  _127
REMARK   55  A    between atoms: _127  and  _128
REMARK   56  A    between atoms: _127  and  _130
REMARK   57  A    between atoms: _130  and  _131
REMARK   58  A    between atoms: _131  and  _132
REMARK   59  A    between atoms: _132  and  _133
REMARK   60  A    between atoms: _142  and  _144
REMARK   61  A    between atoms: _144  and  _145
REMARK   62  A    between atoms: _144  and  _147
REMARK   63  A    between atoms: _147  and  _148
REMARK   64  A    between atoms: _151  and  _153
REMARK   65  A    between atoms: _153  and  _154
REMARK   66  A    between atoms: _153  and  _156
REMARK   67  A    between atoms: _156  and  _157
REMARK   68  A    between atoms: _157  and  _158
REMARK   69  A    between atoms: _161  and  _163
REMARK   70  A    between atoms: _163  and  _164
REMARK   71  A    between atoms: _163  and  _166
REMARK   72  A    between atoms: _166  and  _167
REMARK   73  A    between atoms: _170  and  _172
REMARK   74  A    between atoms: _172  and  _173
REMARK   75  A    between atoms: _172  and  _175
REMARK   76  A    between atoms: _178  and  _180
REMARK   77  A    between atoms: _180  and  _181
REMARK   78  A    between atoms: _180  and  _183
REMARK   79  A    between atoms: _186  and  _188
REMARK   80  A    between atoms: _188  and  _189
REMARK   81  A    between atoms: _188  and  _191
REMARK   82  A    between atoms: _191  and  _192
REMARK   83  A    between atoms: _195  and  _197
REMARK   84  A    between atoms: _197  and  _198
REMARK   85  A    between atoms: _197  and  _200
REMARK   86  A    between atoms: _200  and  _201
REMARK   87  A    between atoms: _203  and  _205
REMARK   88  A    between atoms: _205  and  _206
REMARK   89  A    between atoms: _208  and  _210
REMARK   90  A    between atoms: _210  and  _211
REMARK   91  A    between atoms: _210  and  _213
REMARK   92  A    between atoms: _213  and  _214
REMARK   93  A    between atoms: _217  and  _219
REMARK   94  A    between atoms: _219  and  _220
REMARK   95  A    between atoms: _219  and  _222
REMARK   96  A    between atoms: _222  and  _223
REMARK   97  A    between atoms: _226  and  _228
REMARK   98  A    between atoms: _228  and  _229
REMARK   99  A    between atoms: _228  and  _231
REMARK  100  A    between atoms: _231  and  _232
REMARK  101  A    between atoms: _235  and  _237
REMARK  102  A    between atoms: _237  and  _238
REMARK  103  A    between atoms: _237  and  _240
REMARK  104  A    between atoms: _240  and  _241
REMARK  105  A    between atoms: _243  and  _245
REMARK  106  A    between atoms: _245  and  _246
REMARK  107  A    between atoms: _245  and  _248
REMARK  108  A    between atoms: _248  and  _249
REMARK  109  A    between atoms: _259  and  _261
REMARK  110  A    between atoms: _261  and  _262
REMARK  111  A    between atoms: _261  and  _264
REMARK  112  A    between atoms: _264  and  _265
REMARK  113  A    between atoms: _268  and  _270
REMARK  114  A    between atoms: _270  and  _271
REMARK  115  A    between atoms: _270  and  _273
REMARK  116  A    between atoms: _273  and  _274
REMARK  117  A    between atoms: _277  and  _279
REMARK  118  A    between atoms: _279  and  _280
REMARK  119  A    between atoms: _279  and  _282
REMARK  120  A    between atoms: _282  and  _283
REMARK  121  A    between atoms: _283  and  _284
REMARK  122  A    between atoms: _284  and  _285
REMARK  123  A    between atoms: _285  and  _286
REMARK  124  A    between atoms: _290  and  _292
REMARK  125  A    between atoms: _292  and  _293
REMARK  126  A    between atoms: _292  and  _295
REMARK  127  A    between atoms: _295  and  _296
REMARK  128  A    between atoms: _299  and  _301
REMARK  129  A    between atoms: _301  and  _302
REMARK  130  A    between atoms: _305  and  _307
REMARK  131  A    between atoms: _307  and  _308
REMARK  132  A    between atoms: _311  and  _313
REMARK  133  A    between atoms: _313  and  _314
REMARK  134  A    between atoms: _313  and  _316
REMARK  135  A    between atoms: _316  and  _317
REMARK  136  A    between atoms: _321  and  _322
REMARK  137  A    between atoms: _327  and  _329
REMARK  138  A    between atoms: _329  and  _330
REMARK  139  A    between atoms: _329  and  _332
REMARK  140  A    between atoms: _332  and  _333
REMARK  141  A    between atoms: _338  and  _340
REMARK  142  A    between atoms: _340  and  _341
REMARK  143  A    between atoms: _340  and  _343
REMARK  144  A    between atoms: _343  and  _344
REMARK  145  A    between atoms: _347  and  _349
REMARK  146  A    between atoms: _349  and  _350
REMARK  147  A    between atoms: _349  and  _352
REMARK  148  A    between atoms: _352  and  _353
REMARK  149  A    between atoms: _359  and  _361
REMARK  150  A    between atoms: _361  and  _362
REMARK  151  A    between atoms: _361  and  _364
REMARK  152  A    between atoms: _367  and  _369
REMARK  153  A    between atoms: _369  and  _370
REMARK  154  A    between atoms: _369  and  _372
REMARK  155  A    between atoms: _375  and  _377
REMARK  156  A    between atoms: _377  and  _378
REMARK  157  A    between atoms: _380  and  _382
REMARK  158  A    between atoms: _382  and  _383
REMARK  159  A    between atoms: _385  and  _387
REMARK  160  A    between atoms: _387  and  _388
REMARK  161  A    between atoms: _387  and  _390
REMARK  162  A    between atoms: _390  and  _391
REMARK  163  A    between atoms: _394  and  _396
REMARK  164  A    between atoms: _396  and  _397
REMARK  165  A    between atoms: _396  and  _399
REMARK  166  A    between atoms: _399  and  _400
REMARK  167  A    between atoms: _400  and  _402
REMARK  168  A    between atoms: _402  and  MG_565
REMARK  169  A    between atoms: _403  and  _405
REMARK  170  A    between atoms: _405  and  _406
REMARK  171  A    between atoms: _405  and  _408
REMARK  172  A    between atoms: _408  and  _409
REMARK  173  A    between atoms: _414  and  _415
REMARK  174  A    between atoms: _417  and  _419
REMARK  175  A    between atoms: _419  and  _420
REMARK  176  A    between atoms: _419  and  _422
REMARK  177  A    between atoms: _422  and  _423
REMARK  178  A    between atoms: _426  and  _428
REMARK  179  A    between atoms: _428  and  _429
REMARK  180  A    between atoms: _428  and  _431
REMARK  181  A    between atoms: _431  and  _432
REMARK  182  A    between atoms: _432  and  _433
REMARK  183  A    between atoms: _436  and  _438
REMARK  184  A    between atoms: _438  and  _439
REMARK  185  A    between atoms: _438  and  _441
REMARK  186  A    between atoms: _441  and  _442
REMARK  187  A    between atoms: _442  and  _443
REMARK  188  A    between atoms: _443  and  _444
REMARK  189  A    between atoms: _453  and  _455
REMARK  190  A    between atoms: _455  and  _456
REMARK  191  A    between atoms: _455  and  _458
REMARK  192  A    between atoms: _458  and  _459
REMARK  193  A    between atoms: _464  and  _465
REMARK  194  A    between atoms: _467  and  _469
REMARK  195  A    between atoms: _469  and  _470
REMARK  196  A    between atoms: _469  and  _472
REMARK  197  A    between atoms: _472  and  _473
REMARK  198  A    between atoms: _473  and  _474
REMARK  199  A    between atoms: _474  and  _475
REMARK  200  A    between atoms: _484  and  _486
REMARK  201  A    between atoms: _486  and  _487
REMARK  202  A    between atoms: _486  and  _489
REMARK  203  A    between atoms: _489  and  _490
REMARK  204  A    between atoms: _493  and  _495
REMARK  205  A    between atoms: _495  and  _496
REMARK  206  A    between atoms: _498  and  _500
REMARK  207  A    between atoms: _500  and  _501
REMARK  208  A    between atoms: _500  and  _503
REMARK  209  A    between atoms: _503  and  _504
REMARK  210  A    between atoms: _507  and  _509
REMARK  211  A    between atoms: _509  and  _510
REMARK  212  A    between atoms: _509  and  _512
REMARK  213  A    between atoms: _512  and  _513
REMARK  214  A    between atoms: _518  and  _519
REMARK  215  A    between atoms: _521  and  _523
REMARK  216  A    between atoms: _523  and  _524
REMARK  217  A    between atoms: _523  and  _526
REMARK  218  A    between atoms: _526  and  _527
REMARK  219  A    between atoms: _533  and  _535
REMARK  220  A    between atoms: _535  and  _536
REMARK  221  A    between atoms: _535  and  _538
REMARK  222  A    between atoms: _538  and  _539
REMARK  223  A    between atoms: _545  and  _547
REMARK  224  A    between atoms: _547  and  _548
REMARK  225  A    between atoms: _547  and  _550
REMARK  226  A    between atoms: _550  and  _551
REMARK  227  A    between atoms: _554  and  _556
REMARK  228  A    between atoms: _556  and  _557
REMARK  229  A    between atoms: _556  and  _559
REMARK  230  A    between atoms: _559  and  _560
REMARK                            x       y       z     vdW  Elec       q    Type
REMARK                         _______ _______ _______ _____ _____    ______ ____
ROOT
ATOM      1  O   HOH     1      -0.135   6.029 122.776  0.00  0.00    +0.000 OA
ENDROOT
TORSDOF 0
REMARK  Name = ../refined-set-2016/4rhx/4rhx_pocket.pdb
REMARK  230 active torsions:
REMARK  status: ('A' for Active; 'I' for Inactive)
REMARK    1  A    between atoms: _1  and  _3
REMARK    2  A    between atoms: _3  and  _4
REMARK    3  A    between atoms: _3  and  _6
REMARK    4  A    between atoms: _6  and  _7
REMARK    5  A    between atoms: _10  and  _12
REMARK    6  A    between atoms: _12  and  _13
REMARK    7  A    between atoms: _12  and  _15
REMARK    8  A    between atoms: _18  and  _20
REMARK    9  A    between atoms: _20  and  _21
REMARK   10  A    between atoms: _20  and  _23
REMARK   11  A    between atoms: _23  and  _24
REMARK   12  A    between atoms: _27  and  _29
REMARK   13  A    between atoms: _29  and  _30
REMARK   14  A    between atoms: _29  and  _32
REMARK   15  A    between atoms: _32  and  _33
REMARK   16  A    between atoms: _33  and  _34
REMARK   17  A    between atoms: _34  and  _35
REMARK   18  A    between atoms: _35  and  _36
REMARK   19  A    between atoms: _40  and  _42
REMARK   20  A    between atoms: _42  and  _43
REMARK   21  A    between atoms: _45  and  _47
REMARK   22  A    between atoms: _47  and  _48
REMARK   23  A    between atoms: _51  and  _53
REMARK   24  A    between atoms: _53  and  _54
REMARK   25  A    between atoms: _53  and  _56
REMARK   26  A    between atoms: _59  and  _61
REMARK   27  A    between atoms: _61  and  _62
REMARK   28  A    between atoms: _61  and  _64
REMARK   29  A    between atoms: _64  and  _65
REMARK   30  A    between atoms: _65  and  _66
REMARK   31  A    between atoms: _68  and  _70
REMARK   32  A    between atoms: _70  and  _71
REMARK   33  A    between atoms: _74  and  _76
REMARK   34  A    between atoms: _76  and  _77
REMARK   35  A    between atoms: _76  and  _79
REMARK   36  A    between atoms: _82  and  _84
REMARK   37  A    between atoms: _84  and  _85
REMARK   38  A    between atoms: _84  and  _87
REMARK   39  A    between atoms: _87  and  _88
REMARK   40  A    between atoms: _90  and  _92
REMARK   41  A    between atoms: _92  and  _93
REMARK   42  A    between atoms: _92  and  _95
REMARK   43  A    between atoms: _95  and  _96
REMARK   44  A    between atoms: _98  and  _100
REMARK   45  A    between atoms: _100  and  _101
REMARK   46  A    between atoms: _100  and  _103
REMARK   47  A    between atoms: _103  and  _104
REMARK   48  A    between atoms: _109  and  _110
REMARK   49  A    between atoms: _112  and  _114
REMARK   50  A    between atoms: _114  and  _115
REMARK   51  A    between atoms: _117  and  _119
REMARK   52  A    between atoms: _119  and  _120
REMARK   53  A    between atoms: _119  and  _122
REMARK   54  A    between atoms: _125  and  _127
REMARK   55  A    between atoms: _127  and  _128
REMARK   56  A    between atoms: _127  and  _130
REMARK   57  A    between atoms: _130  and  _131
REMARK   58  A    between atoms: _131  and  _132
REMARK   59  A    between atoms: _132  and  _133
REMARK   60  A    between atoms: _142  and  _144
REMARK   61  A    between atoms: _144  and  _145
REMARK   62  A    between atoms: _144  and  _147
REMARK   63  A    between atoms: _147  and  _148
REMARK   64  A    between atoms: _151  and  _153
REMARK   65  A    between atoms: _153  and  _154
REMARK   66  A    between atoms: _153  and  _156
REMARK   67  A    between atoms: _156  and  _157
REMARK   68  A    between atoms: _157  and  _158
REMARK   69  A    between atoms: _161  and  _163
REMARK   70  A    between atoms: _163  and  _164
REMARK   71  A    between atoms: _163  and  _166
REMARK   72  A    between atoms: _166  and  _167
REMARK   73  A    between atoms: _170  and  _172
REMARK   74  A    between atoms: _172  and  _173
REMARK   75  A    between atoms: _172  and  _175
REMARK   76  A    between atoms: _178  and  _180
REMARK   77  A    between atoms: _180  and  _181
REMARK   78  A    between atoms: _180  and  _183
REMARK   79  A    between atoms: _186  and  _188
REMARK   80  A    between atoms: _188  and  _189
REMARK   81  A    between atoms: _188  and  _191
REMARK   82  A    between atoms: _191  and  _192
REMARK   83  A    between atoms: _195  and  _197
REMARK   84  A    between atoms: _197  and  _198
REMARK   85  A    between atoms: _197  and  _200
REMARK   86  A    between atoms: _200  and  _201
REMARK   87  A    between atoms: _203  and  _205
REMARK   88  A    between atoms: _205  and  _206
REMARK   89  A    between atoms: _208  and  _210
REMARK   90  A    between atoms: _210  and  _211
REMARK   91  A    between atoms: _210  and  _213
REMARK   92  A    between atoms: _213  and  _214
REMARK   93  A    between atoms: _217  and  _219
REMARK   94  A    between atoms: _219  and  _220
REMARK   95  A    between atoms: _219  and  _222
REMARK   96  A    between atoms: _222  and  _223
REMARK   97  A    between atoms: _226  and  _228
REMARK   98  A    between atoms: _228  and  _229
REMARK   99  A    between atoms: _228  and  _231
REMARK  100  A    between atoms: _231  and  _232
REMARK  101  A    between atoms: _235  and  _237
REMARK  102  A    between atoms: _237  and  _238
REMARK  103  A    between atoms: _237  and  _240
REMARK  104  A    between atoms: _240  and  _241
REMARK  105  A    between atoms: _243  and  _245
REMARK  106  A    between atoms: _245  and  _246
REMARK  107  A    between atoms: _245  and  _248
REMARK  108  A    between atoms: _248  and  _249
REMARK  109  A    between atoms: _259  and  _261
REMARK  110  A    between atoms: _261  and  _262
REMARK  111  A    between atoms: _261  and  _264
REMARK  112  A    between atoms: _264  and  _265
REMARK  113  A    between atoms: _268  and  _270
REMARK  114  A    between atoms: _270  and  _271
REMARK  115  A    between atoms: _270  and  _273
REMARK  116  A    between atoms: _273  and  _274
REMARK  117  A    between atoms: _277  and  _279
REMARK  118  A    between atoms: _279  and  _280
REMARK  119  A    between atoms: _279  and  _282
REMARK  120  A    between atoms: _282  and  _283
REMARK  121  A    between atoms: _283  and  _284
REMARK  122  A    between atoms: _284  and  _285
REMARK  123  A    between atoms: _285  and  _286
REMARK  124  A    between atoms: _290  and  _292
REMARK  125  A    between atoms: _292  and  _293
REMARK  126  A    between atoms: _292  and  _295
REMARK  127  A    between atoms: _295  and  _296
REMARK  128  A    between atoms: _299  and  _301
REMARK  129  A    between atoms: _301  and  _302
REMARK  130  A    between atoms: _305  and  _307
REMARK  131  A    between atoms: _307  and  _308
REMARK  132  A    between atoms: _311  and  _313
REMARK  133  A    between atoms: _313  and  _314
REMARK  134  A    between atoms: _313  and  _316
REMARK  135  A    between atoms: _316  and  _317
REMARK  136  A    between atoms: _321  and  _322
REMARK  137  A    between atoms: _327  and  _329
REMARK  138  A    between atoms: _329  and  _330
REMARK  139  A    between atoms: _329  and  _332
REMARK  140  A    between atoms: _332  and  _333
REMARK  141  A    between atoms: _338  and  _340
REMARK  142  A    between atoms: _340  and  _341
REMARK  143  A    between atoms: _340  and  _343
REMARK  144  A    between atoms: _343  and  _344
REMARK  145  A    between atoms: _347  and  _349
REMARK  146  A    between atoms: _349  and  _350
REMARK  147  A    between atoms: _349  and  _352
REMARK  148  A    between atoms: _352  and  _353
REMARK  149  A    between atoms: _359  and  _361
REMARK  150  A    between atoms: _361  and  _362
REMARK  151  A    between atoms: _361  and  _364
REMARK  152  A    between atoms: _367  and  _369
REMARK  153  A    between atoms: _369  and  _370
REMARK  154  A    between atoms: _369  and  _372
REMARK  155  A    between atoms: _375  and  _377
REMARK  156  A    between atoms: _377  and  _378
REMARK  157  A    between atoms: _380  and  _382
REMARK  158  A    between atoms: _382  and  _383
REMARK  159  A    between atoms: _385  and  _387
REMARK  160  A    between atoms: _387  and  _388
REMARK  161  A    between atoms: _387  and  _390
REMARK  162  A    between atoms: _390  and  _391
REMARK  163  A    between atoms: _394  and  _396
REMARK  164  A    between atoms: _396  and  _397
REMARK  165  A    between atoms: _396  and  _399
REMARK  166  A    between atoms: _399  and  _400
REMARK  167  A    between atoms: _400  and  _402
REMARK  168  A    between atoms: _402  and  MG_565
REMARK  169  A    between atoms: _403  and  _405
REMARK  170  A    between atoms: _405  and  _406
REMARK  171  A    between atoms: _405  and  _408
REMARK  172  A    between atoms: _408  and  _409
REMARK  173  A    between atoms: _414  and  _415
REMARK  174  A    between atoms: _417  and  _419
REMARK  175  A    between atoms: _419  and  _420
REMARK  176  A    between atoms: _419  and  _422
REMARK  177  A    between atoms: _422  and  _423
REMARK  178  A    between atoms: _426  and  _428
REMARK  179  A    between atoms: _428  and  _429
REMARK  180  A    between atoms: _428  and  _431
REMARK  181  A    between atoms: _431  and  _432
REMARK  182  A    between atoms: _432  and  _433
REMARK  183  A    between atoms: _436  and  _438
REMARK  184  A    between atoms: _438  and  _439
REMARK  185  A    between atoms: _438  and  _441
REMARK  186  A    between atoms: _441  and  _442
REMARK  187  A    between atoms: _442  and  _443
REMARK  188  A    between atoms: _443  and  _444
REMARK  189  A    between atoms: _453  and  _455
REMARK  190  A    between atoms: _455  and  _456
REMARK  191  A    between atoms: _455  and  _458
REMARK  192  A    between atoms: _458  and  _459
REMARK  193  A    between atoms: _464  and  _465
REMARK  194  A    between atoms: _467  and  _469
REMARK  195  A    between atoms: _469  and  _470
REMARK  196  A    between atoms: _469  and  _472
REMARK  197  A    between atoms: _472  and  _473
REMARK  198  A    between atoms: _473  and  _474
REMARK  199  A    between atoms: _474  and  _475
REMARK  200  A    between atoms: _484  and  _486
REMARK  201  A    between atoms: _486  and  _487
REMARK  202  A    between atoms: _486  and  _489
REMARK  203  A    between atoms: _489  and  _490
REMARK  204  A    between atoms: _493  and  _495
REMARK  205  A    between atoms: _495  and  _496
REMARK  206  A    between atoms: _498  and  _500
REMARK  207  A    between atoms: _500  and  _501
REMARK  208  A    between atoms: _500  and  _503
REMARK  209  A    between atoms: _503  and  _504
REMARK  210  A    between atoms: _507  and  _509
REMARK  211  A    between atoms: _509  and  _510
REMARK  212  A    between atoms: _509  and  _512
REMARK  213  A    between atoms: _512  and  _513
REMARK  214  A    between atoms: _518  and  _519
REMARK  215  A    between atoms: _521  and  _523
REMARK  216  A    between atoms: _523  and  _524
REMARK  217  A    between atoms: _523  and  _526
REMARK  218  A    between atoms: _526  and  _527
REMARK  219  A    between atoms: _533  and  _535
REMARK  220  A    between atoms: _535  and  _536
REMARK  221  A    between atoms: _535  and  _538
REMARK  222  A    between atoms: _538  and  _539
REMARK  223  A    between atoms: _545  and  _547
REMARK  224  A    between atoms: _547  and  _548
REMARK  225  A    between atoms: _547  and  _550
REMARK  226  A    between atoms: _550  and  _551
REMARK  227  A    between atoms: _554  and  _556
REMARK  228  A    between atoms: _556  and  _557
REMARK  229  A    between atoms: _556  and  _559
REMARK  230  A    between atoms: _559  and  _560
REMARK                            x       y       z     vdW  Elec       q    Type
REMARK                         _______ _______ _______ _____ _____    ______ ____
ROOT
ATOM      1  O   HOH     1      -7.486  18.154 137.514  0.00  0.00    +0.000 OA
ENDROOT
TORSDOF 0
REMARK  Name = ../refined-set-2016/4rhx/4rhx_pocket.pdb
REMARK  230 active torsions:
REMARK  status: ('A' for Active; 'I' for Inactive)
REMARK    1  A    between atoms: _1  and  _3
REMARK    2  A    between atoms: _3  and  _4
REMARK    3  A    between atoms: _3  and  _6
REMARK    4  A    between atoms: _6  and  _7
REMARK    5  A    between atoms: _10  and  _12
REMARK    6  A    between atoms: _12  and  _13
REMARK    7  A    between atoms: _12  and  _15
REMARK    8  A    between atoms: _18  and  _20
REMARK    9  A    between atoms: _20  and  _21
REMARK   10  A    between atoms: _20  and  _23
REMARK   11  A    between atoms: _23  and  _24
REMARK   12  A    between atoms: _27  and  _29
REMARK   13  A    between atoms: _29  and  _30
REMARK   14  A    between atoms: _29  and  _32
REMARK   15  A    between atoms: _32  and  _33
REMARK   16  A    between atoms: _33  and  _34
REMARK   17  A    between atoms: _34  and  _35
REMARK   18  A    between atoms: _35  and  _36
REMARK   19  A    between atoms: _40  and  _42
REMARK   20  A    between atoms: _42  and  _43
REMARK   21  A    between atoms: _45  and  _47
REMARK   22  A    between atoms: _47  and  _48
REMARK   23  A    between atoms: _51  and  _53
REMARK   24  A    between atoms: _53  and  _54
REMARK   25  A    between atoms: _53  and  _56
REMARK   26  A    between atoms: _59  and  _61
REMARK   27  A    between atoms: _61  and  _62
REMARK   28  A    between atoms: _61  and  _64
REMARK   29  A    between atoms: _64  and  _65
REMARK   30  A    between atoms: _65  and  _66
REMARK   31  A    between atoms: _68  and  _70
REMARK   32  A    between atoms: _70  and  _71
REMARK   33  A    between atoms: _74  and  _76
REMARK   34  A    between atoms: _76  and  _77
REMARK   35  A    between atoms: _76  and  _79
REMARK   36  A    between atoms: _82  and  _84
REMARK   37  A    between atoms: _84  and  _85
REMARK   38  A    between atoms: _84  and  _87
REMARK   39  A    between atoms: _87  and  _88
REMARK   40  A    between atoms: _90  and  _92
REMARK   41  A    between atoms: _92  and  _93
REMARK   42  A    between atoms: _92  and  _95
REMARK   43  A    between atoms: _95  and  _96
REMARK   44  A    between atoms: _98  and  _100
REMARK   45  A    between atoms: _100  and  _101
REMARK   46  A    between atoms: _100  and  _103
REMARK   47  A    between atoms: _103  and  _104
REMARK   48  A    between atoms: _109  and  _110
REMARK   49  A    between atoms: _112  and  _114
REMARK   50  A    between atoms: _114  and  _115
REMARK   51  A    between atoms: _117  and  _119
REMARK   52  A    between atoms: _119  and  _120
REMARK   53  A    between atoms: _119  and  _122
REMARK   54  A    between atoms: _125  and  _127
REMARK   55  A    between atoms: _127  and  _128
REMARK   56  A    between atoms: _127  and  _130
REMARK   57  A    between atoms: _130  and  _131
REMARK   58  A    between atoms: _131  and  _132
REMARK   59  A    between atoms: _132  and  _133
REMARK   60  A    between atoms: _142  and  _144
REMARK   61  A    between atoms: _144  and  _145
REMARK   62  A    between atoms: _144  and  _147
REMARK   63  A    between atoms: _147  and  _148
REMARK   64  A    between atoms: _151  and  _153
REMARK   65  A    between atoms: _153  and  _154
REMARK   66  A    between atoms: _153  and  _156
REMARK   67  A    between atoms: _156  and  _157
REMARK   68  A    between atoms: _157  and  _158
REMARK   69  A    between atoms: _161  and  _163
REMARK   70  A    between atoms: _163  and  _164
REMARK   71  A    between atoms: _163  and  _166
REMARK   72  A    between atoms: _166  and  _167
REMARK   73  A    between atoms: _170  and  _172
REMARK   74  A    between atoms: _172  and  _173
REMARK   75  A    between atoms: _172  and  _175
REMARK   76  A    between atoms: _178  and  _180
REMARK   77  A    between atoms: _180  and  _181
REMARK   78  A    between atoms: _180  and  _183
REMARK   79  A    between atoms: _186  and  _188
REMARK   80  A    between atoms: _188  and  _189
REMARK   81  A    between atoms: _188  and  _191
REMARK   82  A    between atoms: _191  and  _192
REMARK   83  A    between atoms: _195  and  _197
REMARK   84  A    between atoms: _197  and  _198
REMARK   85  A    between atoms: _197  and  _200
REMARK   86  A    between atoms: _200  and  _201
REMARK   87  A    between atoms: _203  and  _205
REMARK   88  A    between atoms: _205  and  _206
REMARK   89  A    between atoms: _208  and  _210
REMARK   90  A    between atoms: _210  and  _211
REMARK   91  A    between atoms: _210  and  _213
REMARK   92  A    between atoms: _213  and  _214
REMARK   93  A    between atoms: _217  and  _219
REMARK   94  A    between atoms: _219  and  _220
REMARK   95  A    between atoms: _219  and  _222
REMARK   96  A    between atoms: _222  and  _223
REMARK   97  A    between atoms: _226  and  _228
REMARK   98  A    between atoms: _228  and  _229
REMARK   99  A    between atoms: _228  and  _231
REMARK  100  A    between atoms: _231  and  _232
REMARK  101  A    between atoms: _235  and  _237
REMARK  102  A    between atoms: _237  and  _238
REMARK  103  A    between atoms: _237  and  _240
REMARK  104  A    between atoms: _240  and  _241
REMARK  105  A    between atoms: _243  and  _245
REMARK  106  A    between atoms: _245  and  _246
REMARK  107  A    between atoms: _245  and  _248
REMARK  108  A    between atoms: _248  and  _249
REMARK  109  A    between atoms: _259  and  _261
REMARK  110  A    between atoms: _261  and  _262
REMARK  111  A    between atoms: _261  and  _264
REMARK  112  A    between atoms: _264  and  _265
REMARK  113  A    between atoms: _268  and  _270
REMARK  114  A    between atoms: _270  and  _271
REMARK  115  A    between atoms: _270  and  _273
REMARK  116  A    between atoms: _273  and  _274
REMARK  117  A    between atoms: _277  and  _279
REMARK  118  A    between atoms: _279  and  _280
REMARK  119  A    between atoms: _279  and  _282
REMARK  120  A    between atoms: _282  and  _283
REMARK  121  A    between atoms: _283  and  _284
REMARK  122  A    between atoms: _284  and  _285
REMARK  123  A    between atoms: _285  and  _286
REMARK  124  A    between atoms: _290  and  _292
REMARK  125  A    between atoms: _292  and  _293
REMARK  126  A    between atoms: _292  and  _295
REMARK  127  A    between atoms: _295  and  _296
REMARK  128  A    between atoms: _299  and  _301
REMARK  129  A    between atoms: _301  and  _302
REMARK  130  A    between atoms: _305  and  _307
REMARK  131  A    between atoms: _307  and  _308
REMARK  132  A    between atoms: _311  and  _313
REMARK  133  A    between atoms: _313  and  _314
REMARK  134  A    between atoms: _313  and  _316
REMARK  135  A    between atoms: _316  and  _317
REMARK  136  A    between atoms: _321  and  _322
REMARK  137  A    between atoms: _327  and  _329
REMARK  138  A    between atoms: _329  and  _330
REMARK  139  A    between atoms: _329  and  _332
REMARK  140  A    between atoms: _332  and  _333
REMARK  141  A    between atoms: _338  and  _340
REMARK  142  A    between atoms: _340  and  _341
REMARK  143  A    between atoms: _340  and  _343
REMARK  144  A    between atoms: _343  and  _344
REMARK  145  A    between atoms: _347  and  _349
REMARK  146  A    between atoms: _349  and  _350
REMARK  147  A    between atoms: _349  and  _352
REMARK  148  A    between atoms: _352  and  _353
REMARK  149  A    between atoms: _359  and  _361
REMARK  150  A    between atoms: _361  and  _362
REMARK  151  A    between atoms: _361  and  _364
REMARK  152  A    between atoms: _367  and  _369
REMARK  153  A    between atoms: _369  and  _370
REMARK  154  A    between atoms: _369  and  _372
REMARK  155  A    between atoms: _375  and  _377
REMARK  156  A    between atoms: _377  and  _378
REMARK  157  A    between atoms: _380  and  _382
REMARK  158  A    between atoms: _382  and  _383
REMARK  159  A    between atoms: _385  and  _387
REMARK  160  A    between atoms: _387  and  _388
REMARK  161  A    between atoms: _387  and  _390
REMARK  162  A    between atoms: _390  and  _391
REMARK  163  A    between atoms: _394  and  _396
REMARK  164  A    between atoms: _396  and  _397
REMARK  165  A    between atoms: _396  and  _399
REMARK  166  A    between atoms: _399  and  _400
REMARK  167  A    between atoms: _400  and  _402
REMARK  168  A    between atoms: _402  and  MG_565
REMARK  169  A    between atoms: _403  and  _405
REMARK  170  A    between atoms: _405  and  _406
REMARK  171  A    between atoms: _405  and  _408
REMARK  172  A    between atoms: _408  and  _409
REMARK  173  A    between atoms: _414  and  _415
REMARK  174  A    between atoms: _417  and  _419
REMARK  175  A    between atoms: _419  and  _420
REMARK  176  A    between atoms: _419  and  _422
REMARK  177  A    between atoms: _422  and  _423
REMARK  178  A    between atoms: _426  and  _428
REMARK  179  A    between atoms: _428  and  _429
REMARK  180  A    between atoms: _428  and  _431
REMARK  181  A    between atoms: _431  and  _432
REMARK  182  A    between atoms: _432  and  _433
REMARK  183  A    between atoms: _436  and  _438
REMARK  184  A    between atoms: _438  and  _439
REMARK  185  A    between atoms: _438  and  _441
REMARK  186  A    between atoms: _441  and  _442
REMARK  187  A    between atoms: _442  and  _443
REMARK  188  A    between atoms: _443  and  _444
REMARK  189  A    between atoms: _453  and  _455
REMARK  190  A    between atoms: _455  and  _456
REMARK  191  A    between atoms: _455  and  _458
REMARK  192  A    between atoms: _458  and  _459
REMARK  193  A    between atoms: _464  and  _465
REMARK  194  A    between atoms: _467  and  _469
REMARK  195  A    between atoms: _469  and  _470
REMARK  196  A    between atoms: _469  and  _472
REMARK  197  A    between atoms: _472  and  _473
REMARK  198  A    between atoms: _473  and  _474
REMARK  199  A    between atoms: _474  and  _475
REMARK  200  A    between atoms: _484  and  _486
REMARK  201  A    between atoms: _486  and  _487
REMARK  202  A    between atoms: _486  and  _489
REMARK  203  A    between atoms: _489  and  _490
REMARK  204  A    between atoms: _493  and  _495
REMARK  205  A    between atoms: _495  and  _496
REMARK  206  A    between atoms: _498  and  _500
REMARK  207  A    between atoms: _500  and  _501
REMARK  208  A    between atoms: _500  and  _503
REMARK  209  A    between atoms: _503  and  _504
REMARK  210  A    between atoms: _507  and  _509
REMARK  211  A    between atoms: _509  and  _510
REMARK  212  A    between atoms: _509  and  _512
REMARK  213  A    between atoms: _512  and  _513
REMARK  214  A    between atoms: _518  and  _519
REMARK  215  A    between atoms: _521  and  _523
REMARK  216  A    between atoms: _523  and  _524
REMARK  217  A    between atoms: _523  and  _526
REMARK  218  A    between atoms: _526  and  _527
REMARK  219  A    between atoms: _533  and  _535
REMARK  220  A    between atoms: _535  and  _536
REMARK  221  A    between atoms: _535  and  _538
REMARK  222  A    between atoms: _538  and  _539
REMARK  223  A    between atoms: _545  and  _547
REMARK  224  A    between atoms: _547  and  _548
REMARK  225  A    between atoms: _547  and  _550
REMARK  226  A    between atoms: _550  and  _551
REMARK  227  A    between atoms: _554  and  _556
REMARK  228  A    between atoms: _556  and  _557
REMARK  229  A    between atoms: _556  and  _559
REMARK  230  A    between atoms: _559  and  _560
REMARK                            x       y       z     vdW  Elec       q    Type
REMARK                         _______ _______ _______ _____ _____    ______ ____
ROOT
ATOM      1  O   HOH     1      -0.289  -0.462 125.412  0.00  0.00    +0.000 OA
ENDROOT
TORSDOF 0
REMARK  Name = ../refined-set-2016/4rhx/4rhx_pocket.pdb
REMARK  230 active torsions:
REMARK  status: ('A' for Active; 'I' for Inactive)
REMARK    1  A    between atoms: _1  and  _3
REMARK    2  A    between atoms: _3  and  _4
REMARK    3  A    between atoms: _3  and  _6
REMARK    4  A    between atoms: _6  and  _7
REMARK    5  A    between atoms: _10  and  _12
REMARK    6  A    between atoms: _12  and  _13
REMARK    7  A    between atoms: _12  and  _15
REMARK    8  A    between atoms: _18  and  _20
REMARK    9  A    between atoms: _20  and  _21
REMARK   10  A    between atoms: _20  and  _23
REMARK   11  A    between atoms: _23  and  _24
REMARK   12  A    between atoms: _27  and  _29
REMARK   13  A    between atoms: _29  and  _30
REMARK   14  A    between atoms: _29  and  _32
REMARK   15  A    between atoms: _32  and  _33
REMARK   16  A    between atoms: _33  and  _34
REMARK   17  A    between atoms: _34  and  _35
REMARK   18  A    between atoms: _35  and  _36
REMARK   19  A    between atoms: _40  and  _42
REMARK   20  A    between atoms: _42  and  _43
REMARK   21  A    between atoms: _45  and  _47
REMARK   22  A    between atoms: _47  and  _48
REMARK   23  A    between atoms: _51  and  _53
REMARK   24  A    between atoms: _53  and  _54
REMARK   25  A    between atoms: _53  and  _56
REMARK   26  A    between atoms: _59  and  _61
REMARK   27  A    between atoms: _61  and  _62
REMARK   28  A    between atoms: _61  and  _64
REMARK   29  A    between atoms: _64  and  _65
REMARK   30  A    between atoms: _65  and  _66
REMARK   31  A    between atoms: _68  and  _70
REMARK   32  A    between atoms: _70  and  _71
REMARK   33  A    between atoms: _74  and  _76
REMARK   34  A    between atoms: _76  and  _77
REMARK   35  A    between atoms: _76  and  _79
REMARK   36  A    between atoms: _82  and  _84
REMARK   37  A    between atoms: _84  and  _85
REMARK   38  A    between atoms: _84  and  _87
REMARK   39  A    between atoms: _87  and  _88
REMARK   40  A    between atoms: _90  and  _92
REMARK   41  A    between atoms: _92  and  _93
REMARK   42  A    between atoms: _92  and  _95
REMARK   43  A    between atoms: _95  and  _96
REMARK   44  A    between atoms: _98  and  _100
REMARK   45  A    between atoms: _100  and  _101
REMARK   46  A    between atoms: _100  and  _103
REMARK   47  A    between atoms: _103  and  _104
REMARK   48  A    between atoms: _109  and  _110
REMARK   49  A    between atoms: _112  and  _114
REMARK   50  A    between atoms: _114  and  _115
REMARK   51  A    between atoms: _117  and  _119
REMARK   52  A    between atoms: _119  and  _120
REMARK   53  A    between atoms: _119  and  _122
REMARK   54  A    between atoms: _125  and  _127
REMARK   55  A    between atoms: _127  and  _128
REMARK   56  A    between atoms: _127  and  _130
REMARK   57  A    between atoms: _130  and  _131
REMARK   58  A    between atoms: _131  and  _132
REMARK   59  A    between atoms: _132  and  _133
REMARK   60  A    between atoms: _142  and  _144
REMARK   61  A    between atoms: _144  and  _145
REMARK   62  A    between atoms: _144  and  _147
REMARK   63  A    between atoms: _147  and  _148
REMARK   64  A    between atoms: _151  and  _153
REMARK   65  A    between atoms: _153  and  _154
REMARK   66  A    between atoms: _153  and  _156
REMARK   67  A    between atoms: _156  and  _157
REMARK   68  A    between atoms: _157  and  _158
REMARK   69  A    between atoms: _161  and  _163
REMARK   70  A    between atoms: _163  and  _164
REMARK   71  A    between atoms: _163  and  _166
REMARK   72  A    between atoms: _166  and  _167
REMARK   73  A    between atoms: _170  and  _172
REMARK   74  A    between atoms: _172  and  _173
REMARK   75  A    between atoms: _172  and  _175
REMARK   76  A    between atoms: _178  and  _180
REMARK   77  A    between atoms: _180  and  _181
REMARK   78  A    between atoms: _180  and  _183
REMARK   79  A    between atoms: _186  and  _188
REMARK   80  A    between atoms: _188  and  _189
REMARK   81  A    between atoms: _188  and  _191
REMARK   82  A    between atoms: _191  and  _192
REMARK   83  A    between atoms: _195  and  _197
REMARK   84  A    between atoms: _197  and  _198
REMARK   85  A    between atoms: _197  and  _200
REMARK   86  A    between atoms: _200  and  _201
REMARK   87  A    between atoms: _203  and  _205
REMARK   88  A    between atoms: _205  and  _206
REMARK   89  A    between atoms: _208  and  _210
REMARK   90  A    between atoms: _210  and  _211
REMARK   91  A    between atoms: _210  and  _213
REMARK   92  A    between atoms: _213  and  _214
REMARK   93  A    between atoms: _217  and  _219
REMARK   94  A    between atoms: _219  and  _220
REMARK   95  A    between atoms: _219  and  _222
REMARK   96  A    between atoms: _222  and  _223
REMARK   97  A    between atoms: _226  and  _228
REMARK   98  A    between atoms: _228  and  _229
REMARK   99  A    between atoms: _228  and  _231
REMARK  100  A    between atoms: _231  and  _232
REMARK  101  A    between atoms: _235  and  _237
REMARK  102  A    between atoms: _237  and  _238
REMARK  103  A    between atoms: _237  and  _240
REMARK  104  A    between atoms: _240  and  _241
REMARK  105  A    between atoms: _243  and  _245
REMARK  106  A    between atoms: _245  and  _246
REMARK  107  A    between atoms: _245  and  _248
REMARK  108  A    between atoms: _248  and  _249
REMARK  109  A    between atoms: _259  and  _261
REMARK  110  A    between atoms: _261  and  _262
REMARK  111  A    between atoms: _261  and  _264
REMARK  112  A    between atoms: _264  and  _265
REMARK  113  A    between atoms: _268  and  _270
REMARK  114  A    between atoms: _270  and  _271
REMARK  115  A    between atoms: _270  and  _273
REMARK  116  A    between atoms: _273  and  _274
REMARK  117  A    between atoms: _277  and  _279
REMARK  118  A    between atoms: _279  and  _280
REMARK  119  A    between atoms: _279  and  _282
REMARK  120  A    between atoms: _282  and  _283
REMARK  121  A    between atoms: _283  and  _284
REMARK  122  A    between atoms: _284  and  _285
REMARK  123  A    between atoms: _285  and  _286
REMARK  124  A    between atoms: _290  and  _292
REMARK  125  A    between atoms: _292  and  _293
REMARK  126  A    between atoms: _292  and  _295
REMARK  127  A    between atoms: _295  and  _296
REMARK  128  A    between atoms: _299  and  _301
REMARK  129  A    between atoms: _301  and  _302
REMARK  130  A    between atoms: _305  and  _307
REMARK  131  A    between atoms: _307  and  _308
REMARK  132  A    between atoms: _311  and  _313
REMARK  133  A    between atoms: _313  and  _314
REMARK  134  A    between atoms: _313  and  _316
REMARK  135  A    between atoms: _316  and  _317
REMARK  136  A    between atoms: _321  and  _322
REMARK  137  A    between atoms: _327  and  _329
REMARK  138  A    between atoms: _329  and  _330
REMARK  139  A    between atoms: _329  and  _332
REMARK  140  A    between atoms: _332  and  _333
REMARK  141  A    between atoms: _338  and  _340
REMARK  142  A    between atoms: _340  and  _341
REMARK  143  A    between atoms: _340  and  _343
REMARK  144  A    between atoms: _343  and  _344
REMARK  145  A    between atoms: _347  and  _349
REMARK  146  A    between atoms: _349  and  _350
REMARK  147  A    between atoms: _349  and  _352
REMARK  148  A    between atoms: _352  and  _353
REMARK  149  A    between atoms: _359  and  _361
REMARK  150  A    between atoms: _361  and  _362
REMARK  151  A    between atoms: _361  and  _364
REMARK  152  A    between atoms: _367  and  _369
REMARK  153  A    between atoms: _369  and  _370
REMARK  154  A    between atoms: _369  and  _372
REMARK  155  A    between atoms: _375  and  _377
REMARK  156  A    between atoms: _377  and  _378
REMARK  157  A    between atoms: _380  and  _382
REMARK  158  A    between atoms: _382  and  _383
REMARK  159  A    between atoms: _385  and  _387
REMARK  160  A    between atoms: _387  and  _388
REMARK  161  A    between atoms: _387  and  _390
REMARK  162  A    between atoms: _390  and  _391
REMARK  163  A    between atoms: _394  and  _396
REMARK  164  A    between atoms: _396  and  _397
REMARK  165  A    between atoms: _396  and  _399
REMARK  166  A    between atoms: _399  and  _400
REMARK  167  A    between atoms: _400  and  _402
REMARK  168  A    between atoms: _402  and  MG_565
REMARK  169  A    between atoms: _403  and  _405
REMARK  170  A    between atoms: _405  and  _406
REMARK  171  A    between atoms: _405  and  _408
REMARK  172  A    between atoms: _408  and  _409
REMARK  173  A    between atoms: _414  and  _415
REMARK  174  A    between atoms: _417  and  _419
REMARK  175  A    between atoms: _419  and  _420
REMARK  176  A    between atoms: _419  and  _422
REMARK  177  A    between atoms: _422  and  _423
REMARK  178  A    between atoms: _426  and  _428
REMARK  179  A    between atoms: _428  and  _429
REMARK  180  A    between atoms: _428  and  _431
REMARK  181  A    between atoms: _431  and  _432
REMARK  182  A    between atoms: _432  and  _433
REMARK  183  A    between atoms: _436  and  _438
REMARK  184  A    between atoms: _438  and  _439
REMARK  185  A    between atoms: _438  and  _441
REMARK  186  A    between atoms: _441  and  _442
REMARK  187  A    between atoms: _442  and  _443
REMARK  188  A    between atoms: _443  and  _444
REMARK  189  A    between atoms: _453  and  _455
REMARK  190  A    between atoms: _455  and  _456
REMARK  191  A    between atoms: _455  and  _458
REMARK  192  A    between atoms: _458  and  _459
REMARK  193  A    between atoms: _464  and  _465
REMARK  194  A    between atoms: _467  and  _469
REMARK  195  A    between atoms: _469  and  _470
REMARK  196  A    between atoms: _469  and  _472
REMARK  197  A    between atoms: _472  and  _473
REMARK  198  A    between atoms: _473  and  _474
REMARK  199  A    between atoms: _474  and  _475
REMARK  200  A    between atoms: _484  and  _486
REMARK  201  A    between atoms: _486  and  _487
REMARK  202  A    between atoms: _486  and  _489
REMARK  203  A    between atoms: _489  and  _490
REMARK  204  A    between atoms: _493  and  _495
REMARK  205  A    between atoms: _495  and  _496
REMARK  206  A    between atoms: _498  and  _500
REMARK  207  A    between atoms: _500  and  _501
REMARK  208  A    between atoms: _500  and  _503
REMARK  209  A    between atoms: _503  and  _504
REMARK  210  A    between atoms: _507  and  _509
REMARK  211  A    between atoms: _509  and  _510
REMARK  212  A    between atoms: _509  and  _512
REMARK  213  A    between atoms: _512  and  _513
REMARK  214  A    between atoms: _518  and  _519
REMARK  215  A    between atoms: _521  and  _523
REMARK  216  A    between atoms: _523  and  _524
REMARK  217  A    between atoms: _523  and  _526
REMARK  218  A    between atoms: _526  and  _527
REMARK  219  A    between atoms: _533  and  _535
REMARK  220  A    between atoms: _535  and  _536
REMARK  221  A    between atoms: _535  and  _538
REMARK  222  A    between atoms: _538  and  _539
REMARK  223  A    between atoms: _545  and  _547
REMARK  224  A    between atoms: _547  and  _548
REMARK  225  A    between atoms: _547  and  _550
REMARK  226  A    between atoms: _550  and  _551
REMARK  227  A    between atoms: _554  and  _556
REMARK  228  A    between atoms: _556  and  _557
REMARK  229  A    between atoms: _556  and  _559
REMARK  230  A    between atoms: _559  and  _560
REMARK                            x       y       z     vdW  Elec       q    Type
REMARK                         _______ _______ _______ _____ _____    ______ ____
ROOT
ATOM      1  O   HOH     1       1.485  21.153 118.210  0.00  0.00    +0.000 OA
ENDROOT
TORSDOF 0
