REMARK  Name = ../refined-set-2016/4q90/4q90_pocket.pdb
REMARK  121 active torsions:
REMARK  status: ('A' for Active; 'I' for Inactive)
REMARK    1  A    between atoms: _1  and  _3
REMARK    2  A    between atoms: _3  and  _4
REMARK    3  A    between atoms: _3  and  _6
REMARK    4  A    between atoms: _6  and  _7
REMARK    5  A    between atoms: _17  and  _19
REMARK    6  A    between atoms: _19  and  _20
REMARK    7  A    between atoms: _19  and  _22
REMARK    8  A    between atoms: _22  and  _23
REMARK    9  A    between atoms: _28  and  _29
REMARK   10  A    between atoms: _31  and  _33
REMARK   11  A    between atoms: _33  and  _34
REMARK   12  A    between atoms: _33  and  _36
REMARK   13  A    between atoms: _36  and  _37
REMARK   14  A    between atoms: _39  and  _41
REMARK   15  A    between atoms: _41  and  _42
REMARK   16  A    between atoms: _41  and  _44
REMARK   17  A    between atoms: _44  and  _45
REMARK   18  A    between atoms: _50  and  _52
REMARK   19  A    between atoms: _52  and  _53
REMARK   20  A    between atoms: _52  and  _55
REMARK   21  A    between atoms: _55  and  _56
REMARK   22  A    between atoms: _61  and  _63
REMARK   23  A    between atoms: _63  and  _64
REMARK   24  A    between atoms: _67  and  _69
REMARK   25  A    between atoms: _69  and  _70
REMARK   26  A    between atoms: _69  and  _72
REMARK   27  A    between atoms: _72  and  _73
REMARK   28  A    between atoms: _78  and  _80
REMARK   29  A    between atoms: _80  and  _81
REMARK   30  A    between atoms: _80  and  _83
REMARK   31  A    between atoms: _83  and  _84
REMARK   32  A    between atoms: _87  and  _89
REMARK   33  A    between atoms: _89  and  _90
REMARK   34  A    between atoms: _89  and  _92
REMARK   35  A    between atoms: _92  and  _93
REMARK   36  A    between atoms: _93  and  _94
REMARK   37  A    between atoms: _99  and  _101
REMARK   38  A    between atoms: _112  and  _115
REMARK   39  A    between atoms: _115  and  _116
REMARK   40  A    between atoms: _124  and  _125
REMARK   41  A    between atoms: _133  and  _135
REMARK   42  A    between atoms: _135  and  _136
REMARK   43  A    between atoms: _135  and  _138
REMARK   44  A    between atoms: _138  and  _139
REMARK   45  A    between atoms: _139  and  _140
REMARK   46  A    between atoms: _143  and  _145
REMARK   47  A    between atoms: _145  and  _146
REMARK   48  A    between atoms: _145  and  _148
REMARK   49  A    between atoms: _148  and  _149
REMARK   50  A    between atoms: _154  and  _156
REMARK   51  A    between atoms: _156  and  _157
REMARK   52  A    between atoms: _156  and  _159
REMARK   53  A    between atoms: _159  and  _160
REMARK   54  A    between atoms: _160  and  _161
REMARK   55  A    between atoms: _164  and  _166
REMARK   56  A    between atoms: _166  and  _167
REMARK   57  A    between atoms: _166  and  _169
REMARK   58  A    between atoms: _169  and  _170
REMARK   59  A    between atoms: _173  and  _175
REMARK   60  A    between atoms: _175  and  _176
REMARK   61  A    between atoms: _175  and  _178
REMARK   62  A    between atoms: _178  and  _179
REMARK   63  A    between atoms: _180  and  ZN_340
REMARK   64  A    between atoms: _184  and  _186
REMARK   65  A    between atoms: _186  and  _187
REMARK   66  A    between atoms: _186  and  _189
REMARK   67  A    between atoms: _189  and  _190
REMARK   68  A    between atoms: _193  and  _195
REMARK   69  A    between atoms: _195  and  _196
REMARK   70  A    between atoms: _195  and  _198
REMARK   71  A    between atoms: _201  and  _203
REMARK   72  A    between atoms: _203  and  _204
REMARK   73  A    between atoms: _203  and  _206
REMARK   74  A    between atoms: _206  and  _207
REMARK   75  A    between atoms: _212  and  _214
REMARK   76  A    between atoms: _214  and  _215
REMARK   77  A    between atoms: _214  and  _217
REMARK   78  A    between atoms: _217  and  _218
REMARK   79  A    between atoms: _224  and  _226
REMARK   80  A    between atoms: _226  and  _227
REMARK   81  A    between atoms: _226  and  _229
REMARK   82  A    between atoms: _232  and  _234
REMARK   83  A    between atoms: _234  and  _235
REMARK   84  A    between atoms: _234  and  _237
REMARK   85  A    between atoms: _237  and  _238
REMARK   86  A    between atoms: _241  and  _243
REMARK   87  A    between atoms: _243  and  _244
REMARK   88  A    between atoms: _243  and  _246
REMARK   89  A    between atoms: _249  and  _251
REMARK   90  A    between atoms: _251  and  _252
REMARK   91  A    between atoms: _251  and  _254
REMARK   92  A    between atoms: _254  and  _255
REMARK   93  A    between atoms: _257  and  _259
REMARK   94  A    between atoms: _259  and  _260
REMARK   95  A    between atoms: _259  and  _262
REMARK   96  A    between atoms: _262  and  _263
REMARK   97  A    between atoms: _266  and  _268
REMARK   98  A    between atoms: _268  and  _269
REMARK   99  A    between atoms: _268  and  _271
REMARK  100  A    between atoms: _271  and  _272
REMARK  101  A    between atoms: _275  and  _277
REMARK  102  A    between atoms: _277  and  _278
REMARK  103  A    between atoms: _277  and  _280
REMARK  104  A    between atoms: _280  and  _281
REMARK  105  A    between atoms: _285  and  _286
REMARK  106  A    between atoms: _292  and  _293
REMARK  107  A    between atoms: _298  and  _300
REMARK  108  A    between atoms: _300  and  _301
REMARK  109  A    between atoms: _300  and  _303
REMARK  110  A    between atoms: _303  and  _304
REMARK  111  A    between atoms: _307  and  _309
REMARK  112  A    between atoms: _309  and  _310
REMARK  113  A    between atoms: _309  and  _312
REMARK  114  A    between atoms: _312  and  _313
REMARK  115  A    between atoms: _316  and  _318
REMARK  116  A    between atoms: _318  and  _319
REMARK  117  A    between atoms: _318  and  _321
REMARK  118  A    between atoms: _324  and  _326
REMARK  119  A    between atoms: _326  and  _327
REMARK  120  A    between atoms: _326  and  _329
REMARK  121  A    between atoms: _329  and  _330
REMARK                            x       y       z     vdW  Elec       q    Type
REMARK                         _______ _______ _______ _____ _____    ______ ____
ROOT
ATOM      1  CG  TRP A   1      27.029  -0.060  12.214  0.00  0.00    -0.002 A 
ATOM      2  CD2 TRP A   1      25.678  -0.478  12.078  0.00  0.00    +0.013 A 
ATOM      3  CE3 TRP A   1      25.025  -1.717  12.188  0.00  0.00    +0.001 A 
ATOM      4  CZ3 TRP A   1      23.580  -1.737  12.010  0.00  0.00    +0.000 A 
ATOM      5  CH2 TRP A   1      22.885  -0.541  11.670  0.00  0.00    +0.001 A 
ATOM      6  CZ2 TRP A   1      23.478   0.656  11.533  0.00  0.00    +0.017 A 
ATOM      7  CE2 TRP A   1      24.901   0.706  11.727  0.00  0.00    +0.056 A 
ATOM      8  NE1 TRP A   1      25.777   1.772  11.656  0.00  0.00    -0.352 N 
ATOM      9  HE1 TRP A   1      25.535   2.750  11.399  0.00  0.00    +0.166 HD
ATOM     10  CD1 TRP A   1      27.039   1.299  11.991  0.00  0.00    +0.068 A 
ENDROOT
BRANCH   1  11
ATOM     11  CB  TRP A   1      28.226  -0.938  12.552  0.00  0.00    +0.053 C 
BRANCH  11  12
ATOM     12  CA  TRP A   1      28.871  -1.540  11.267  0.00  0.00    +0.137 C 
BRANCH  12  13
ATOM     13  N   TRP A   1      29.489  -0.477  10.476  0.00  0.00    -0.239 NA
ATOM     14  H   TRP A   1      29.196   0.516  10.580  0.00  0.00    +0.142 HD
ENDBRANCH  12  13
BRANCH  12  15
ATOM     15  C   TRP A   1      27.839  -2.359  10.467  0.00  0.00    +0.224 C 
ATOM     16  O   TRP A   1      27.216  -1.858   9.465  0.00  0.00    -0.287 OA
ENDBRANCH  12  15
ENDBRANCH  11  12
ENDBRANCH   1  11
TORSDOF 4
REMARK  Name = ../refined-set-2016/4q90/4q90_pocket.pdb
REMARK  121 active torsions:
REMARK  status: ('A' for Active; 'I' for Inactive)
REMARK    1  A    between atoms: _1  and  _3
REMARK    2  A    between atoms: _3  and  _4
REMARK    3  A    between atoms: _3  and  _6
REMARK    4  A    between atoms: _6  and  _7
REMARK    5  A    between atoms: _17  and  _19
REMARK    6  A    between atoms: _19  and  _20
REMARK    7  A    between atoms: _19  and  _22
REMARK    8  A    between atoms: _22  and  _23
REMARK    9  A    between atoms: _28  and  _29
REMARK   10  A    between atoms: _31  and  _33
REMARK   11  A    between atoms: _33  and  _34
REMARK   12  A    between atoms: _33  and  _36
REMARK   13  A    between atoms: _36  and  _37
REMARK   14  A    between atoms: _39  and  _41
REMARK   15  A    between atoms: _41  and  _42
REMARK   16  A    between atoms: _41  and  _44
REMARK   17  A    between atoms: _44  and  _45
REMARK   18  A    between atoms: _50  and  _52
REMARK   19  A    between atoms: _52  and  _53
REMARK   20  A    between atoms: _52  and  _55
REMARK   21  A    between atoms: _55  and  _56
REMARK   22  A    between atoms: _61  and  _63
REMARK   23  A    between atoms: _63  and  _64
REMARK   24  A    between atoms: _67  and  _69
REMARK   25  A    between atoms: _69  and  _70
REMARK   26  A    between atoms: _69  and  _72
REMARK   27  A    between atoms: _72  and  _73
REMARK   28  A    between atoms: _78  and  _80
REMARK   29  A    between atoms: _80  and  _81
REMARK   30  A    between atoms: _80  and  _83
REMARK   31  A    between atoms: _83  and  _84
REMARK   32  A    between atoms: _87  and  _89
REMARK   33  A    between atoms: _89  and  _90
REMARK   34  A    between atoms: _89  and  _92
REMARK   35  A    between atoms: _92  and  _93
REMARK   36  A    between atoms: _93  and  _94
REMARK   37  A    between atoms: _99  and  _101
REMARK   38  A    between atoms: _112  and  _115
REMARK   39  A    between atoms: _115  and  _116
REMARK   40  A    between atoms: _124  and  _125
REMARK   41  A    between atoms: _133  and  _135
REMARK   42  A    between atoms: _135  and  _136
REMARK   43  A    between atoms: _135  and  _138
REMARK   44  A    between atoms: _138  and  _139
REMARK   45  A    between atoms: _139  and  _140
REMARK   46  A    between atoms: _143  and  _145
REMARK   47  A    between atoms: _145  and  _146
REMARK   48  A    between atoms: _145  and  _148
REMARK   49  A    between atoms: _148  and  _149
REMARK   50  A    between atoms: _154  and  _156
REMARK   51  A    between atoms: _156  and  _157
REMARK   52  A    between atoms: _156  and  _159
REMARK   53  A    between atoms: _159  and  _160
REMARK   54  A    between atoms: _160  and  _161
REMARK   55  A    between atoms: _164  and  _166
REMARK   56  A    between atoms: _166  and  _167
REMARK   57  A    between atoms: _166  and  _169
REMARK   58  A    between atoms: _169  and  _170
REMARK   59  A    between atoms: _173  and  _175
REMARK   60  A    between atoms: _175  and  _176
REMARK   61  A    between atoms: _175  and  _178
REMARK   62  A    between atoms: _178  and  _179
REMARK   63  A    between atoms: _180  and  ZN_340
REMARK   64  A    between atoms: _184  and  _186
REMARK   65  A    between atoms: _186  and  _187
REMARK   66  A    between atoms: _186  and  _189
REMARK   67  A    between atoms: _189  and  _190
REMARK   68  A    between atoms: _193  and  _195
REMARK   69  A    between atoms: _195  and  _196
REMARK   70  A    between atoms: _195  and  _198
REMARK   71  A    between atoms: _201  and  _203
REMARK   72  A    between atoms: _203  and  _204
REMARK   73  A    between atoms: _203  and  _206
REMARK   74  A    between atoms: _206  and  _207
REMARK   75  A    between atoms: _212  and  _214
REMARK   76  A    between atoms: _214  and  _215
REMARK   77  A    between atoms: _214  and  _217
REMARK   78  A    between atoms: _217  and  _218
REMARK   79  A    between atoms: _224  and  _226
REMARK   80  A    between atoms: _226  and  _227
REMARK   81  A    between atoms: _226  and  _229
REMARK   82  A    between atoms: _232  and  _234
REMARK   83  A    between atoms: _234  and  _235
REMARK   84  A    between atoms: _234  and  _237
REMARK   85  A    between atoms: _237  and  _238
REMARK   86  A    between atoms: _241  and  _243
REMARK   87  A    between atoms: _243  and  _244
REMARK   88  A    between atoms: _243  and  _246
REMARK   89  A    between atoms: _249  and  _251
REMARK   90  A    between atoms: _251  and  _252
REMARK   91  A    between atoms: _251  and  _254
REMARK   92  A    between atoms: _254  and  _255
REMARK   93  A    between atoms: _257  and  _259
REMARK   94  A    between atoms: _259  and  _260
REMARK   95  A    between atoms: _259  and  _262
REMARK   96  A    between atoms: _262  and  _263
REMARK   97  A    between atoms: _266  and  _268
REMARK   98  A    between atoms: _268  and  _269
REMARK   99  A    between atoms: _268  and  _271
REMARK  100  A    between atoms: _271  and  _272
REMARK  101  A    between atoms: _275  and  _277
REMARK  102  A    between atoms: _277  and  _278
REMARK  103  A    between atoms: _277  and  _280
REMARK  104  A    between atoms: _280  and  _281
REMARK  105  A    between atoms: _285  and  _286
REMARK  106  A    between atoms: _292  and  _293
REMARK  107  A    between atoms: _298  and  _300
REMARK  108  A    between atoms: _300  and  _301
REMARK  109  A    between atoms: _300  and  _303
REMARK  110  A    between atoms: _303  and  _304
REMARK  111  A    between atoms: _307  and  _309
REMARK  112  A    between atoms: _309  and  _310
REMARK  113  A    between atoms: _309  and  _312
REMARK  114  A    between atoms: _312  and  _313
REMARK  115  A    between atoms: _316  and  _318
REMARK  116  A    between atoms: _318  and  _319
REMARK  117  A    between atoms: _318  and  _321
REMARK  118  A    between atoms: _324  and  _326
REMARK  119  A    between atoms: _326  and  _327
REMARK  120  A    between atoms: _326  and  _329
REMARK  121  A    between atoms: _329  and  _330
REMARK                            x       y       z     vdW  Elec       q    Type
REMARK                         _______ _______ _______ _____ _____    ______ ____
ROOT
ATOM      1  CG  TYR A   1      23.013  -7.145  11.845  0.00  0.00    -0.020 A 
ATOM      2  CD2 TYR A   1      22.607  -7.216  13.220  0.00  0.00    -0.001 A 
ATOM      3  CE2 TYR A   1      21.718  -6.253  13.720  0.00  0.00    +0.036 A 
ATOM      4  CZ  TYR A   1      21.181  -5.277  12.860  0.00  0.00    +0.134 A 
ATOM      5  CE1 TYR A   1      21.621  -5.198  11.520  0.00  0.00    +0.036 A 
ATOM      6  CD1 TYR A   1      22.469  -6.149  11.034  0.00  0.00    -0.001 A 
ENDROOT
BRANCH   4   7
ATOM      7  OH  TYR A   1      20.311  -4.367  13.283  0.00  0.00    -0.506 OA
ATOM      8  HH  TYR A   1      20.090  -4.539  14.233  0.00  0.00    +0.292 HD
ENDBRANCH   4   7
BRANCH   1   9
ATOM      9  CB  TYR A   1      23.997  -8.189  11.294  0.00  0.00    +0.051 C 
BRANCH   9  10
ATOM     10  CA  TYR A   1      25.445  -7.810  11.544  0.00  0.00    +0.137 C 
BRANCH  10  11
ATOM     11  N   TYR A   1      25.828  -6.654  10.757  0.00  0.00    -0.239 NA
ATOM     12  H   TYR A   1      25.822  -6.731   9.720  0.00  0.00    +0.142 HD
ENDBRANCH  10  11
BRANCH  10  13
ATOM     13  C   TYR A   1      26.309  -9.040  11.341  0.00  0.00    +0.224 C 
ATOM     14  O   TYR A   1      25.913 -10.146  11.776  0.00  0.00    -0.287 OA
ENDBRANCH  10  13
ENDBRANCH   9  10
ENDBRANCH   1   9
TORSDOF 5
REMARK  Name = ../refined-set-2016/4q90/4q90_pocket.pdb
REMARK  121 active torsions:
REMARK  status: ('A' for Active; 'I' for Inactive)
REMARK    1  A    between atoms: _1  and  _3
REMARK    2  A    between atoms: _3  and  _4
REMARK    3  A    between atoms: _3  and  _6
REMARK    4  A    between atoms: _6  and  _7
REMARK    5  A    between atoms: _17  and  _19
REMARK    6  A    between atoms: _19  and  _20
REMARK    7  A    between atoms: _19  and  _22
REMARK    8  A    between atoms: _22  and  _23
REMARK    9  A    between atoms: _28  and  _29
REMARK   10  A    between atoms: _31  and  _33
REMARK   11  A    between atoms: _33  and  _34
REMARK   12  A    between atoms: _33  and  _36
REMARK   13  A    between atoms: _36  and  _37
REMARK   14  A    between atoms: _39  and  _41
REMARK   15  A    between atoms: _41  and  _42
REMARK   16  A    between atoms: _41  and  _44
REMARK   17  A    between atoms: _44  and  _45
REMARK   18  A    between atoms: _50  and  _52
REMARK   19  A    between atoms: _52  and  _53
REMARK   20  A    between atoms: _52  and  _55
REMARK   21  A    between atoms: _55  and  _56
REMARK   22  A    between atoms: _61  and  _63
REMARK   23  A    between atoms: _63  and  _64
REMARK   24  A    between atoms: _67  and  _69
REMARK   25  A    between atoms: _69  and  _70
REMARK   26  A    between atoms: _69  and  _72
REMARK   27  A    between atoms: _72  and  _73
REMARK   28  A    between atoms: _78  and  _80
REMARK   29  A    between atoms: _80  and  _81
REMARK   30  A    between atoms: _80  and  _83
REMARK   31  A    between atoms: _83  and  _84
REMARK   32  A    between atoms: _87  and  _89
REMARK   33  A    between atoms: _89  and  _90
REMARK   34  A    between atoms: _89  and  _92
REMARK   35  A    between atoms: _92  and  _93
REMARK   36  A    between atoms: _93  and  _94
REMARK   37  A    between atoms: _99  and  _101
REMARK   38  A    between atoms: _112  and  _115
REMARK   39  A    between atoms: _115  and  _116
REMARK   40  A    between atoms: _124  and  _125
REMARK   41  A    between atoms: _133  and  _135
REMARK   42  A    between atoms: _135  and  _136
REMARK   43  A    between atoms: _135  and  _138
REMARK   44  A    between atoms: _138  and  _139
REMARK   45  A    between atoms: _139  and  _140
REMARK   46  A    between atoms: _143  and  _145
REMARK   47  A    between atoms: _145  and  _146
REMARK   48  A    between atoms: _145  and  _148
REMARK   49  A    between atoms: _148  and  _149
REMARK   50  A    between atoms: _154  and  _156
REMARK   51  A    between atoms: _156  and  _157
REMARK   52  A    between atoms: _156  and  _159
REMARK   53  A    between atoms: _159  and  _160
REMARK   54  A    between atoms: _160  and  _161
REMARK   55  A    between atoms: _164  and  _166
REMARK   56  A    between atoms: _166  and  _167
REMARK   57  A    between atoms: _166  and  _169
REMARK   58  A    between atoms: _169  and  _170
REMARK   59  A    between atoms: _173  and  _175
REMARK   60  A    between atoms: _175  and  _176
REMARK   61  A    between atoms: _175  and  _178
REMARK   62  A    between atoms: _178  and  _179
REMARK   63  A    between atoms: _180  and  ZN_340
REMARK   64  A    between atoms: _184  and  _186
REMARK   65  A    between atoms: _186  and  _187
REMARK   66  A    between atoms: _186  and  _189
REMARK   67  A    between atoms: _189  and  _190
REMARK   68  A    between atoms: _193  and  _195
REMARK   69  A    between atoms: _195  and  _196
REMARK   70  A    between atoms: _195  and  _198
REMARK   71  A    between atoms: _201  and  _203
REMARK   72  A    between atoms: _203  and  _204
REMARK   73  A    between atoms: _203  and  _206
REMARK   74  A    between atoms: _206  and  _207
REMARK   75  A    between atoms: _212  and  _214
REMARK   76  A    between atoms: _214  and  _215
REMARK   77  A    between atoms: _214  and  _217
REMARK   78  A    between atoms: _217  and  _218
REMARK   79  A    between atoms: _224  and  _226
REMARK   80  A    between atoms: _226  and  _227
REMARK   81  A    between atoms: _226  and  _229
REMARK   82  A    between atoms: _232  and  _234
REMARK   83  A    between atoms: _234  and  _235
REMARK   84  A    between atoms: _234  and  _237
REMARK   85  A    between atoms: _237  and  _238
REMARK   86  A    between atoms: _241  and  _243
REMARK   87  A    between atoms: _243  and  _244
REMARK   88  A    between atoms: _243  and  _246
REMARK   89  A    between atoms: _249  and  _251
REMARK   90  A    between atoms: _251  and  _252
REMARK   91  A    between atoms: _251  and  _254
REMARK   92  A    between atoms: _254  and  _255
REMARK   93  A    between atoms: _257  and  _259
REMARK   94  A    between atoms: _259  and  _260
REMARK   95  A    between atoms: _259  and  _262
REMARK   96  A    between atoms: _262  and  _263
REMARK   97  A    between atoms: _266  and  _268
REMARK   98  A    between atoms: _268  and  _269
REMARK   99  A    between atoms: _268  and  _271
REMARK  100  A    between atoms: _271  and  _272
REMARK  101  A    between atoms: _275  and  _277
REMARK  102  A    between atoms: _277  and  _278
REMARK  103  A    between atoms: _277  and  _280
REMARK  104  A    between atoms: _280  and  _281
REMARK  105  A    between atoms: _285  and  _286
REMARK  106  A    between atoms: _292  and  _293
REMARK  107  A    between atoms: _298  and  _300
REMARK  108  A    between atoms: _300  and  _301
REMARK  109  A    between atoms: _300  and  _303
REMARK  110  A    between atoms: _303  and  _304
REMARK  111  A    between atoms: _307  and  _309
REMARK  112  A    between atoms: _309  and  _310
REMARK  113  A    between atoms: _309  and  _312
REMARK  114  A    between atoms: _312  and  _313
REMARK  115  A    between atoms: _316  and  _318
REMARK  116  A    between atoms: _318  and  _319
REMARK  117  A    between atoms: _318  and  _321
REMARK  118  A    between atoms: _324  and  _326
REMARK  119  A    between atoms: _326  and  _327
REMARK  120  A    between atoms: _326  and  _329
REMARK  121  A    between atoms: _329  and  _330
REMARK                            x       y       z     vdW  Elec       q    Type
REMARK                         _______ _______ _______ _____ _____    ______ ____
ROOT
ATOM      1  CA  SER A   1      18.155  -2.447  24.298  0.00  0.00    +0.163 C 
ENDROOT
BRANCH   1   2
ATOM      2  N   SER A   1      19.223  -1.564  24.775  0.00  0.00    -0.237 NA
ATOM      3  H   SER A   1      19.715  -0.961  24.085  0.00  0.00    +0.142 HD
ENDBRANCH   1   2
BRANCH   1   4
ATOM      4  C   SER A   1      18.672  -3.368  23.223  0.00  0.00    +0.227 C 
ATOM      5  O   SER A   1      19.641  -3.029  22.537  0.00  0.00    -0.287 OA
ENDBRANCH   1   4
BRANCH   1   6
ATOM      6  CB  SER A   1      17.015  -1.617  23.731  0.00  0.00    +0.162 C 
BRANCH   6   7
ATOM      7  OG  SER A   1      16.391  -0.919  24.882  0.00  0.00    -0.380 OA
ATOM      8  H   SER A   1      16.055  -1.588  25.529  0.00  0.00    +0.211 HD
ENDBRANCH   6   7
ENDBRANCH   1   6
TORSDOF 4
REMARK  Name = ../refined-set-2016/4q90/4q90_pocket.pdb
REMARK  121 active torsions:
REMARK  status: ('A' for Active; 'I' for Inactive)
REMARK    1  A    between atoms: _1  and  _3
REMARK    2  A    between atoms: _3  and  _4
REMARK    3  A    between atoms: _3  and  _6
REMARK    4  A    between atoms: _6  and  _7
REMARK    5  A    between atoms: _17  and  _19
REMARK    6  A    between atoms: _19  and  _20
REMARK    7  A    between atoms: _19  and  _22
REMARK    8  A    between atoms: _22  and  _23
REMARK    9  A    between atoms: _28  and  _29
REMARK   10  A    between atoms: _31  and  _33
REMARK   11  A    between atoms: _33  and  _34
REMARK   12  A    between atoms: _33  and  _36
REMARK   13  A    between atoms: _36  and  _37
REMARK   14  A    between atoms: _39  and  _41
REMARK   15  A    between atoms: _41  and  _42
REMARK   16  A    between atoms: _41  and  _44
REMARK   17  A    between atoms: _44  and  _45
REMARK   18  A    between atoms: _50  and  _52
REMARK   19  A    between atoms: _52  and  _53
REMARK   20  A    between atoms: _52  and  _55
REMARK   21  A    between atoms: _55  and  _56
REMARK   22  A    between atoms: _61  and  _63
REMARK   23  A    between atoms: _63  and  _64
REMARK   24  A    between atoms: _67  and  _69
REMARK   25  A    between atoms: _69  and  _70
REMARK   26  A    between atoms: _69  and  _72
REMARK   27  A    between atoms: _72  and  _73
REMARK   28  A    between atoms: _78  and  _80
REMARK   29  A    between atoms: _80  and  _81
REMARK   30  A    between atoms: _80  and  _83
REMARK   31  A    between atoms: _83  and  _84
REMARK   32  A    between atoms: _87  and  _89
REMARK   33  A    between atoms: _89  and  _90
REMARK   34  A    between atoms: _89  and  _92
REMARK   35  A    between atoms: _92  and  _93
REMARK   36  A    between atoms: _93  and  _94
REMARK   37  A    between atoms: _99  and  _101
REMARK   38  A    between atoms: _112  and  _115
REMARK   39  A    between atoms: _115  and  _116
REMARK   40  A    between atoms: _124  and  _125
REMARK   41  A    between atoms: _133  and  _135
REMARK   42  A    between atoms: _135  and  _136
REMARK   43  A    between atoms: _135  and  _138
REMARK   44  A    between atoms: _138  and  _139
REMARK   45  A    between atoms: _139  and  _140
REMARK   46  A    between atoms: _143  and  _145
REMARK   47  A    between atoms: _145  and  _146
REMARK   48  A    between atoms: _145  and  _148
REMARK   49  A    between atoms: _148  and  _149
REMARK   50  A    between atoms: _154  and  _156
REMARK   51  A    between atoms: _156  and  _157
REMARK   52  A    between atoms: _156  and  _159
REMARK   53  A    between atoms: _159  and  _160
REMARK   54  A    between atoms: _160  and  _161
REMARK   55  A    between atoms: _164  and  _166
REMARK   56  A    between atoms: _166  and  _167
REMARK   57  A    between atoms: _166  and  _169
REMARK   58  A    between atoms: _169  and  _170
REMARK   59  A    between atoms: _173  and  _175
REMARK   60  A    between atoms: _175  and  _176
REMARK   61  A    between atoms: _175  and  _178
REMARK   62  A    between atoms: _178  and  _179
REMARK   63  A    between atoms: _180  and  ZN_340
REMARK   64  A    between atoms: _184  and  _186
REMARK   65  A    between atoms: _186  and  _187
REMARK   66  A    between atoms: _186  and  _189
REMARK   67  A    between atoms: _189  and  _190
REMARK   68  A    between atoms: _193  and  _195
REMARK   69  A    between atoms: _195  and  _196
REMARK   70  A    between atoms: _195  and  _198
REMARK   71  A    between atoms: _201  and  _203
REMARK   72  A    between atoms: _203  and  _204
REMARK   73  A    between atoms: _203  and  _206
REMARK   74  A    between atoms: _206  and  _207
REMARK   75  A    between atoms: _212  and  _214
REMARK   76  A    between atoms: _214  and  _215
REMARK   77  A    between atoms: _214  and  _217
REMARK   78  A    between atoms: _217  and  _218
REMARK   79  A    between atoms: _224  and  _226
REMARK   80  A    between atoms: _226  and  _227
REMARK   81  A    between atoms: _226  and  _229
REMARK   82  A    between atoms: _232  and  _234
REMARK   83  A    between atoms: _234  and  _235
REMARK   84  A    between atoms: _234  and  _237
REMARK   85  A    between atoms: _237  and  _238
REMARK   86  A    between atoms: _241  and  _243
REMARK   87  A    between atoms: _243  and  _244
REMARK   88  A    between atoms: _243  and  _246
REMARK   89  A    between atoms: _249  and  _251
REMARK   90  A    between atoms: _251  and  _252
REMARK   91  A    between atoms: _251  and  _254
REMARK   92  A    between atoms: _254  and  _255
REMARK   93  A    between atoms: _257  and  _259
REMARK   94  A    between atoms: _259  and  _260
REMARK   95  A    between atoms: _259  and  _262
REMARK   96  A    between atoms: _262  and  _263
REMARK   97  A    between atoms: _266  and  _268
REMARK   98  A    between atoms: _268  and  _269
REMARK   99  A    between atoms: _268  and  _271
REMARK  100  A    between atoms: _271  and  _272
REMARK  101  A    between atoms: _275  and  _277
REMARK  102  A    between atoms: _277  and  _278
REMARK  103  A    between atoms: _277  and  _280
REMARK  104  A    between atoms: _280  and  _281
REMARK  105  A    between atoms: _285  and  _286
REMARK  106  A    between atoms: _292  and  _293
REMARK  107  A    between atoms: _298  and  _300
REMARK  108  A    between atoms: _300  and  _301
REMARK  109  A    between atoms: _300  and  _303
REMARK  110  A    between atoms: _303  and  _304
REMARK  111  A    between atoms: _307  and  _309
REMARK  112  A    between atoms: _309  and  _310
REMARK  113  A    between atoms: _309  and  _312
REMARK  114  A    between atoms: _312  and  _313
REMARK  115  A    between atoms: _316  and  _318
REMARK  116  A    between atoms: _318  and  _319
REMARK  117  A    between atoms: _318  and  _321
REMARK  118  A    between atoms: _324  and  _326
REMARK  119  A    between atoms: _326  and  _327
REMARK  120  A    between atoms: _326  and  _329
REMARK  121  A    between atoms: _329  and  _330
REMARK                            x       y       z     vdW  Elec       q    Type
REMARK                         _______ _______ _______ _____ _____    ______ ____
ROOT
ATOM      1  CB  ASN A   1      18.488   1.880   5.380  0.00  0.00    +0.110 C 
ENDROOT
BRANCH   1   2
ATOM      2  CG  ASN A   1      18.210   1.046   6.588  0.00  0.00    +0.221 C 
ATOM      3  ND2 ASN A   1      17.746   1.678   7.633  0.00  0.00    -0.329 N 
ATOM      4 HD21 ASN A   1      17.545   1.156   8.510  0.00  0.00    +0.145 HD
ATOM      5 HD22 ASN A   1      17.578   2.703   7.588  0.00  0.00    +0.145 HD
ATOM      6  OD1 ASN A   1      18.425  -0.150   6.584  0.00  0.00    -0.275 OA
ENDBRANCH   1   2
BRANCH   1   7
ATOM      7  CA  ASN A   1      18.818   1.058   4.137  0.00  0.00    +0.142 C 
BRANCH   7   8
ATOM      8  N   ASN A   1      17.677   0.218   3.668  0.00  0.00    -0.239 NA
ATOM      9  H   ASN A   1      17.106  -0.302   4.364  0.00  0.00    +0.142 HD
ENDBRANCH   7   8
BRANCH   7  10
ATOM     10  C   ASN A   1      20.107   0.264   4.387  0.00  0.00    +0.225 C 
ATOM     11  O   ASN A   1      21.082   0.835   4.950  0.00  0.00    -0.287 OA
ENDBRANCH   7  10
ENDBRANCH   1   7
TORSDOF 4
REMARK  Name = ../refined-set-2016/4q90/4q90_pocket.pdb
REMARK  121 active torsions:
REMARK  status: ('A' for Active; 'I' for Inactive)
REMARK    1  A    between atoms: _1  and  _3
REMARK    2  A    between atoms: _3  and  _4
REMARK    3  A    between atoms: _3  and  _6
REMARK    4  A    between atoms: _6  and  _7
REMARK    5  A    between atoms: _17  and  _19
REMARK    6  A    between atoms: _19  and  _20
REMARK    7  A    between atoms: _19  and  _22
REMARK    8  A    between atoms: _22  and  _23
REMARK    9  A    between atoms: _28  and  _29
REMARK   10  A    between atoms: _31  and  _33
REMARK   11  A    between atoms: _33  and  _34
REMARK   12  A    between atoms: _33  and  _36
REMARK   13  A    between atoms: _36  and  _37
REMARK   14  A    between atoms: _39  and  _41
REMARK   15  A    between atoms: _41  and  _42
REMARK   16  A    between atoms: _41  and  _44
REMARK   17  A    between atoms: _44  and  _45
REMARK   18  A    between atoms: _50  and  _52
REMARK   19  A    between atoms: _52  and  _53
REMARK   20  A    between atoms: _52  and  _55
REMARK   21  A    between atoms: _55  and  _56
REMARK   22  A    between atoms: _61  and  _63
REMARK   23  A    between atoms: _63  and  _64
REMARK   24  A    between atoms: _67  and  _69
REMARK   25  A    between atoms: _69  and  _70
REMARK   26  A    between atoms: _69  and  _72
REMARK   27  A    between atoms: _72  and  _73
REMARK   28  A    between atoms: _78  and  _80
REMARK   29  A    between atoms: _80  and  _81
REMARK   30  A    between atoms: _80  and  _83
REMARK   31  A    between atoms: _83  and  _84
REMARK   32  A    between atoms: _87  and  _89
REMARK   33  A    between atoms: _89  and  _90
REMARK   34  A    between atoms: _89  and  _92
REMARK   35  A    between atoms: _92  and  _93
REMARK   36  A    between atoms: _93  and  _94
REMARK   37  A    between atoms: _99  and  _101
REMARK   38  A    between atoms: _112  and  _115
REMARK   39  A    between atoms: _115  and  _116
REMARK   40  A    between atoms: _124  and  _125
REMARK   41  A    between atoms: _133  and  _135
REMARK   42  A    between atoms: _135  and  _136
REMARK   43  A    between atoms: _135  and  _138
REMARK   44  A    between atoms: _138  and  _139
REMARK   45  A    between atoms: _139  and  _140
REMARK   46  A    between atoms: _143  and  _145
REMARK   47  A    between atoms: _145  and  _146
REMARK   48  A    between atoms: _145  and  _148
REMARK   49  A    between atoms: _148  and  _149
REMARK   50  A    between atoms: _154  and  _156
REMARK   51  A    between atoms: _156  and  _157
REMARK   52  A    between atoms: _156  and  _159
REMARK   53  A    between atoms: _159  and  _160
REMARK   54  A    between atoms: _160  and  _161
REMARK   55  A    between atoms: _164  and  _166
REMARK   56  A    between atoms: _166  and  _167
REMARK   57  A    between atoms: _166  and  _169
REMARK   58  A    between atoms: _169  and  _170
REMARK   59  A    between atoms: _173  and  _175
REMARK   60  A    between atoms: _175  and  _176
REMARK   61  A    between atoms: _175  and  _178
REMARK   62  A    between atoms: _178  and  _179
REMARK   63  A    between atoms: _180  and  ZN_340
REMARK   64  A    between atoms: _184  and  _186
REMARK   65  A    between atoms: _186  and  _187
REMARK   66  A    between atoms: _186  and  _189
REMARK   67  A    between atoms: _189  and  _190
REMARK   68  A    between atoms: _193  and  _195
REMARK   69  A    between atoms: _195  and  _196
REMARK   70  A    between atoms: _195  and  _198
REMARK   71  A    between atoms: _201  and  _203
REMARK   72  A    between atoms: _203  and  _204
REMARK   73  A    between atoms: _203  and  _206
REMARK   74  A    between atoms: _206  and  _207
REMARK   75  A    between atoms: _212  and  _214
REMARK   76  A    between atoms: _214  and  _215
REMARK   77  A    between atoms: _214  and  _217
REMARK   78  A    between atoms: _217  and  _218
REMARK   79  A    between atoms: _224  and  _226
REMARK   80  A    between atoms: _226  and  _227
REMARK   81  A    between atoms: _226  and  _229
REMARK   82  A    between atoms: _232  and  _234
REMARK   83  A    between atoms: _234  and  _235
REMARK   84  A    between atoms: _234  and  _237
REMARK   85  A    between atoms: _237  and  _238
REMARK   86  A    between atoms: _241  and  _243
REMARK   87  A    between atoms: _243  and  _244
REMARK   88  A    between atoms: _243  and  _246
REMARK   89  A    between atoms: _249  and  _251
REMARK   90  A    between atoms: _251  and  _252
REMARK   91  A    between atoms: _251  and  _254
REMARK   92  A    between atoms: _254  and  _255
REMARK   93  A    between atoms: _257  and  _259
REMARK   94  A    between atoms: _259  and  _260
REMARK   95  A    between atoms: _259  and  _262
REMARK   96  A    between atoms: _262  and  _263
REMARK   97  A    between atoms: _266  and  _268
REMARK   98  A    between atoms: _268  and  _269
REMARK   99  A    between atoms: _268  and  _271
REMARK  100  A    between atoms: _271  and  _272
REMARK  101  A    between atoms: _275  and  _277
REMARK  102  A    between atoms: _277  and  _278
REMARK  103  A    between atoms: _277  and  _280
REMARK  104  A    between atoms: _280  and  _281
REMARK  105  A    between atoms: _285  and  _286
REMARK  106  A    between atoms: _292  and  _293
REMARK  107  A    between atoms: _298  and  _300
REMARK  108  A    between atoms: _300  and  _301
REMARK  109  A    between atoms: _300  and  _303
REMARK  110  A    between atoms: _303  and  _304
REMARK  111  A    between atoms: _307  and  _309
REMARK  112  A    between atoms: _309  and  _310
REMARK  113  A    between atoms: _309  and  _312
REMARK  114  A    between atoms: _312  and  _313
REMARK  115  A    between atoms: _316  and  _318
REMARK  116  A    between atoms: _318  and  _319
REMARK  117  A    between atoms: _318  and  _321
REMARK  118  A    between atoms: _324  and  _326
REMARK  119  A    between atoms: _326  and  _327
REMARK  120  A    between atoms: _326  and  _329
REMARK  121  A    between atoms: _329  and  _330
REMARK                            x       y       z     vdW  Elec       q    Type
REMARK                         _______ _______ _______ _____ _____    ______ ____
ROOT
ATOM      1  CA  HIS A   1      20.259  -3.017   7.620  0.00  0.00    +0.151 C 
ENDROOT
BRANCH   1   2
ATOM      2  C   HIS A   1      18.886  -3.636   7.791  0.00  0.00    +0.239 C 
ATOM      3  O   HIS A   1      18.758  -4.698   8.439  0.00  0.00    -0.274 OA
ATOM      4  N   ALA A   2      17.878  -2.960   7.245  0.00  0.00    -0.298 N 
ATOM      5  H   ALA A   2      18.106  -2.097   6.711  0.00  0.00    +0.150 HD
BRANCH   4   6
ATOM      6  CA  ALA A   2      16.492  -3.343   7.344  0.00  0.00    +0.137 C 
ATOM      7  CB  ALA A   2      15.909  -3.014   8.724  0.00  0.00    +0.030 C 
BRANCH   6   8
ATOM      8  C   ALA A   2      15.760  -2.606   6.216  0.00  0.00    +0.227 C 
ATOM      9  O   ALA A   2      16.401  -2.002   5.351  0.00  0.00    -0.286 OA
ENDBRANCH   6   8
ENDBRANCH   4   6
ENDBRANCH   1   2
BRANCH   1  10
ATOM     10  N   HIS A   1      20.382  -2.359   6.278  0.00  0.00    -0.238 NA
ATOM     11  H   HIS A   1      19.679  -1.632   6.035  0.00  0.00    +0.142 HD
ENDBRANCH   1  10
BRANCH   1  12
ATOM     12  CB  HIS A   1      20.565  -2.025   8.772  0.00  0.00    +0.074 C 
BRANCH  12  13
ATOM     13  CG  HIS A   1      21.909  -1.368   8.616  0.00  0.00    +0.082 A 
ATOM     14  CD2 HIS A   1      23.142  -1.917   8.679  0.00  0.00    +0.115 A 
ATOM     15  NE2 HIS A   1      24.051  -0.909   8.487  0.00  0.00    -0.221 NA
ATOM     16  CE1 HIS A   1      23.398   0.225   8.280  0.00  0.00    +0.199 A 
ATOM     17  ND1 HIS A   1      22.092  -0.017   8.359  0.00  0.00    -0.227 NA
ENDBRANCH  12  13
ENDBRANCH   1  12
TORSDOF 6
REMARK  Name = ../refined-set-2016/4q90/4q90_pocket.pdb
REMARK  121 active torsions:
REMARK  status: ('A' for Active; 'I' for Inactive)
REMARK    1  A    between atoms: _1  and  _3
REMARK    2  A    between atoms: _3  and  _4
REMARK    3  A    between atoms: _3  and  _6
REMARK    4  A    between atoms: _6  and  _7
REMARK    5  A    between atoms: _17  and  _19
REMARK    6  A    between atoms: _19  and  _20
REMARK    7  A    between atoms: _19  and  _22
REMARK    8  A    between atoms: _22  and  _23
REMARK    9  A    between atoms: _28  and  _29
REMARK   10  A    between atoms: _31  and  _33
REMARK   11  A    between atoms: _33  and  _34
REMARK   12  A    between atoms: _33  and  _36
REMARK   13  A    between atoms: _36  and  _37
REMARK   14  A    between atoms: _39  and  _41
REMARK   15  A    between atoms: _41  and  _42
REMARK   16  A    between atoms: _41  and  _44
REMARK   17  A    between atoms: _44  and  _45
REMARK   18  A    between atoms: _50  and  _52
REMARK   19  A    between atoms: _52  and  _53
REMARK   20  A    between atoms: _52  and  _55
REMARK   21  A    between atoms: _55  and  _56
REMARK   22  A    between atoms: _61  and  _63
REMARK   23  A    between atoms: _63  and  _64
REMARK   24  A    between atoms: _67  and  _69
REMARK   25  A    between atoms: _69  and  _70
REMARK   26  A    between atoms: _69  and  _72
REMARK   27  A    between atoms: _72  and  _73
REMARK   28  A    between atoms: _78  and  _80
REMARK   29  A    between atoms: _80  and  _81
REMARK   30  A    between atoms: _80  and  _83
REMARK   31  A    between atoms: _83  and  _84
REMARK   32  A    between atoms: _87  and  _89
REMARK   33  A    between atoms: _89  and  _90
REMARK   34  A    between atoms: _89  and  _92
REMARK   35  A    between atoms: _92  and  _93
REMARK   36  A    between atoms: _93  and  _94
REMARK   37  A    between atoms: _99  and  _101
REMARK   38  A    between atoms: _112  and  _115
REMARK   39  A    between atoms: _115  and  _116
REMARK   40  A    between atoms: _124  and  _125
REMARK   41  A    between atoms: _133  and  _135
REMARK   42  A    between atoms: _135  and  _136
REMARK   43  A    between atoms: _135  and  _138
REMARK   44  A    between atoms: _138  and  _139
REMARK   45  A    between atoms: _139  and  _140
REMARK   46  A    between atoms: _143  and  _145
REMARK   47  A    between atoms: _145  and  _146
REMARK   48  A    between atoms: _145  and  _148
REMARK   49  A    between atoms: _148  and  _149
REMARK   50  A    between atoms: _154  and  _156
REMARK   51  A    between atoms: _156  and  _157
REMARK   52  A    between atoms: _156  and  _159
REMARK   53  A    between atoms: _159  and  _160
REMARK   54  A    between atoms: _160  and  _161
REMARK   55  A    between atoms: _164  and  _166
REMARK   56  A    between atoms: _166  and  _167
REMARK   57  A    between atoms: _166  and  _169
REMARK   58  A    between atoms: _169  and  _170
REMARK   59  A    between atoms: _173  and  _175
REMARK   60  A    between atoms: _175  and  _176
REMARK   61  A    between atoms: _175  and  _178
REMARK   62  A    between atoms: _178  and  _179
REMARK   63  A    between atoms: _180  and  ZN_340
REMARK   64  A    between atoms: _184  and  _186
REMARK   65  A    between atoms: _186  and  _187
REMARK   66  A    between atoms: _186  and  _189
REMARK   67  A    between atoms: _189  and  _190
REMARK   68  A    between atoms: _193  and  _195
REMARK   69  A    between atoms: _195  and  _196
REMARK   70  A    between atoms: _195  and  _198
REMARK   71  A    between atoms: _201  and  _203
REMARK   72  A    between atoms: _203  and  _204
REMARK   73  A    between atoms: _203  and  _206
REMARK   74  A    between atoms: _206  and  _207
REMARK   75  A    between atoms: _212  and  _214
REMARK   76  A    between atoms: _214  and  _215
REMARK   77  A    between atoms: _214  and  _217
REMARK   78  A    between atoms: _217  and  _218
REMARK   79  A    between atoms: _224  and  _226
REMARK   80  A    between atoms: _226  and  _227
REMARK   81  A    between atoms: _226  and  _229
REMARK   82  A    between atoms: _232  and  _234
REMARK   83  A    between atoms: _234  and  _235
REMARK   84  A    between atoms: _234  and  _237
REMARK   85  A    between atoms: _237  and  _238
REMARK   86  A    between atoms: _241  and  _243
REMARK   87  A    between atoms: _243  and  _244
REMARK   88  A    between atoms: _243  and  _246
REMARK   89  A    between atoms: _249  and  _251
REMARK   90  A    between atoms: _251  and  _252
REMARK   91  A    between atoms: _251  and  _254
REMARK   92  A    between atoms: _254  and  _255
REMARK   93  A    between atoms: _257  and  _259
REMARK   94  A    between atoms: _259  and  _260
REMARK   95  A    between atoms: _259  and  _262
REMARK   96  A    between atoms: _262  and  _263
REMARK   97  A    between atoms: _266  and  _268
REMARK   98  A    between atoms: _268  and  _269
REMARK   99  A    between atoms: _268  and  _271
REMARK  100  A    between atoms: _271  and  _272
REMARK  101  A    between atoms: _275  and  _277
REMARK  102  A    between atoms: _277  and  _278
REMARK  103  A    between atoms: _277  and  _280
REMARK  104  A    between atoms: _280  and  _281
REMARK  105  A    between atoms: _285  and  _286
REMARK  106  A    between atoms: _292  and  _293
REMARK  107  A    between atoms: _298  and  _300
REMARK  108  A    between atoms: _300  and  _301
REMARK  109  A    between atoms: _300  and  _303
REMARK  110  A    between atoms: _303  and  _304
REMARK  111  A    between atoms: _307  and  _309
REMARK  112  A    between atoms: _309  and  _310
REMARK  113  A    between atoms: _309  and  _312
REMARK  114  A    between atoms: _312  and  _313
REMARK  115  A    between atoms: _316  and  _318
REMARK  116  A    between atoms: _318  and  _319
REMARK  117  A    between atoms: _318  and  _321
REMARK  118  A    between atoms: _324  and  _326
REMARK  119  A    between atoms: _326  and  _327
REMARK  120  A    between atoms: _326  and  _329
REMARK  121  A    between atoms: _329  and  _330
REMARK                            x       y       z     vdW  Elec       q    Type
REMARK                         _______ _______ _______ _____ _____    ______ ____
ROOT
ATOM      1  CB  ASN A   1      12.661   2.605   7.024  0.00  0.00    +0.110 C 
ENDROOT
BRANCH   1   2
ATOM      2  CG  ASN A   1      13.778   2.398   7.987  0.00  0.00    +0.221 C 
ATOM      3  OD1 ASN A   1      13.867   1.389   8.660  0.00  0.00    -0.275 OA
ATOM      4  ND2 ASN A   1      14.714   3.389   8.021  0.00  0.00    -0.329 N 
ATOM      5 HD21 ASN A   1      15.545   3.299   8.640  0.00  0.00    +0.145 HD
ATOM      6 HD22 ASN A   1      14.597   4.235   7.428  0.00  0.00    +0.145 HD
ENDBRANCH   1   2
BRANCH   1   7
ATOM      7  CA  ASN A   1      11.916   1.333   6.689  0.00  0.00    +0.142 C 
BRANCH   7   8
ATOM      8  N   ASN A   1      12.737   0.383   5.935  0.00  0.00    -0.239 NA
ATOM      9  H   ASN A   1      13.252   0.704   5.091  0.00  0.00    +0.142 HD
ENDBRANCH   7   8
BRANCH   7  10
ATOM     10  C   ASN A   1      10.718   1.732   5.876  0.00  0.00    +0.225 C 
ATOM     11  O   ASN A   1      10.878   2.136   4.745  0.00  0.00    -0.287 OA
ENDBRANCH   7  10
ENDBRANCH   1   7
TORSDOF 4
REMARK  Name = ../refined-set-2016/4q90/4q90_pocket.pdb
REMARK  121 active torsions:
REMARK  status: ('A' for Active; 'I' for Inactive)
REMARK    1  A    between atoms: _1  and  _3
REMARK    2  A    between atoms: _3  and  _4
REMARK    3  A    between atoms: _3  and  _6
REMARK    4  A    between atoms: _6  and  _7
REMARK    5  A    between atoms: _17  and  _19
REMARK    6  A    between atoms: _19  and  _20
REMARK    7  A    between atoms: _19  and  _22
REMARK    8  A    between atoms: _22  and  _23
REMARK    9  A    between atoms: _28  and  _29
REMARK   10  A    between atoms: _31  and  _33
REMARK   11  A    between atoms: _33  and  _34
REMARK   12  A    between atoms: _33  and  _36
REMARK   13  A    between atoms: _36  and  _37
REMARK   14  A    between atoms: _39  and  _41
REMARK   15  A    between atoms: _41  and  _42
REMARK   16  A    between atoms: _41  and  _44
REMARK   17  A    between atoms: _44  and  _45
REMARK   18  A    between atoms: _50  and  _52
REMARK   19  A    between atoms: _52  and  _53
REMARK   20  A    between atoms: _52  and  _55
REMARK   21  A    between atoms: _55  and  _56
REMARK   22  A    between atoms: _61  and  _63
REMARK   23  A    between atoms: _63  and  _64
REMARK   24  A    between atoms: _67  and  _69
REMARK   25  A    between atoms: _69  and  _70
REMARK   26  A    between atoms: _69  and  _72
REMARK   27  A    between atoms: _72  and  _73
REMARK   28  A    between atoms: _78  and  _80
REMARK   29  A    between atoms: _80  and  _81
REMARK   30  A    between atoms: _80  and  _83
REMARK   31  A    between atoms: _83  and  _84
REMARK   32  A    between atoms: _87  and  _89
REMARK   33  A    between atoms: _89  and  _90
REMARK   34  A    between atoms: _89  and  _92
REMARK   35  A    between atoms: _92  and  _93
REMARK   36  A    between atoms: _93  and  _94
REMARK   37  A    between atoms: _99  and  _101
REMARK   38  A    between atoms: _112  and  _115
REMARK   39  A    between atoms: _115  and  _116
REMARK   40  A    between atoms: _124  and  _125
REMARK   41  A    between atoms: _133  and  _135
REMARK   42  A    between atoms: _135  and  _136
REMARK   43  A    between atoms: _135  and  _138
REMARK   44  A    between atoms: _138  and  _139
REMARK   45  A    between atoms: _139  and  _140
REMARK   46  A    between atoms: _143  and  _145
REMARK   47  A    between atoms: _145  and  _146
REMARK   48  A    between atoms: _145  and  _148
REMARK   49  A    between atoms: _148  and  _149
REMARK   50  A    between atoms: _154  and  _156
REMARK   51  A    between atoms: _156  and  _157
REMARK   52  A    between atoms: _156  and  _159
REMARK   53  A    between atoms: _159  and  _160
REMARK   54  A    between atoms: _160  and  _161
REMARK   55  A    between atoms: _164  and  _166
REMARK   56  A    between atoms: _166  and  _167
REMARK   57  A    between atoms: _166  and  _169
REMARK   58  A    between atoms: _169  and  _170
REMARK   59  A    between atoms: _173  and  _175
REMARK   60  A    between atoms: _175  and  _176
REMARK   61  A    between atoms: _175  and  _178
REMARK   62  A    between atoms: _178  and  _179
REMARK   63  A    between atoms: _180  and  ZN_340
REMARK   64  A    between atoms: _184  and  _186
REMARK   65  A    between atoms: _186  and  _187
REMARK   66  A    between atoms: _186  and  _189
REMARK   67  A    between atoms: _189  and  _190
REMARK   68  A    between atoms: _193  and  _195
REMARK   69  A    between atoms: _195  and  _196
REMARK   70  A    between atoms: _195  and  _198
REMARK   71  A    between atoms: _201  and  _203
REMARK   72  A    between atoms: _203  and  _204
REMARK   73  A    between atoms: _203  and  _206
REMARK   74  A    between atoms: _206  and  _207
REMARK   75  A    between atoms: _212  and  _214
REMARK   76  A    between atoms: _214  and  _215
REMARK   77  A    between atoms: _214  and  _217
REMARK   78  A    between atoms: _217  and  _218
REMARK   79  A    between atoms: _224  and  _226
REMARK   80  A    between atoms: _226  and  _227
REMARK   81  A    between atoms: _226  and  _229
REMARK   82  A    between atoms: _232  and  _234
REMARK   83  A    between atoms: _234  and  _235
REMARK   84  A    between atoms: _234  and  _237
REMARK   85  A    between atoms: _237  and  _238
REMARK   86  A    between atoms: _241  and  _243
REMARK   87  A    between atoms: _243  and  _244
REMARK   88  A    between atoms: _243  and  _246
REMARK   89  A    between atoms: _249  and  _251
REMARK   90  A    between atoms: _251  and  _252
REMARK   91  A    between atoms: _251  and  _254
REMARK   92  A    between atoms: _254  and  _255
REMARK   93  A    between atoms: _257  and  _259
REMARK   94  A    between atoms: _259  and  _260
REMARK   95  A    between atoms: _259  and  _262
REMARK   96  A    between atoms: _262  and  _263
REMARK   97  A    between atoms: _266  and  _268
REMARK   98  A    between atoms: _268  and  _269
REMARK   99  A    between atoms: _268  and  _271
REMARK  100  A    between atoms: _271  and  _272
REMARK  101  A    between atoms: _275  and  _277
REMARK  102  A    between atoms: _277  and  _278
REMARK  103  A    between atoms: _277  and  _280
REMARK  104  A    between atoms: _280  and  _281
REMARK  105  A    between atoms: _285  and  _286
REMARK  106  A    between atoms: _292  and  _293
REMARK  107  A    between atoms: _298  and  _300
REMARK  108  A    between atoms: _300  and  _301
REMARK  109  A    between atoms: _300  and  _303
REMARK  110  A    between atoms: _303  and  _304
REMARK  111  A    between atoms: _307  and  _309
REMARK  112  A    between atoms: _309  and  _310
REMARK  113  A    between atoms: _309  and  _312
REMARK  114  A    between atoms: _312  and  _313
REMARK  115  A    between atoms: _316  and  _318
REMARK  116  A    between atoms: _318  and  _319
REMARK  117  A    between atoms: _318  and  _321
REMARK  118  A    between atoms: _324  and  _326
REMARK  119  A    between atoms: _326  and  _327
REMARK  120  A    between atoms: _326  and  _329
REMARK  121  A    between atoms: _329  and  _330
REMARK                            x       y       z     vdW  Elec       q    Type
REMARK                         _______ _______ _______ _____ _____    ______ ____
ROOT
ATOM      1  C   ILE A   1       8.343   7.333  10.814  0.00  0.00    +0.238 C 
ATOM      2  N   GLN A   2       8.520   6.121  11.362  0.00  0.00    -0.298 N 
ATOM      3  H   GLN A   2       8.469   5.993  12.393  0.00  0.00    +0.150 HD
ATOM      4  O   ILE A   1       8.391   7.523   9.595  0.00  0.00    -0.274 OA
ENDROOT
BRANCH   1   5
ATOM      5  CA  ILE A   1       8.055   8.510  11.731  0.00  0.00    +0.145 C 
BRANCH   5   6
ATOM      6  N   ILE A   1       7.121   8.146  12.849  0.00  0.00    -0.238 NA
ATOM      7  H   ILE A   1       7.473   7.528  13.608  0.00  0.00    +0.142 HD
ENDBRANCH   5   6
BRANCH   5   8
ATOM      8  CB  ILE A   1       9.322   9.212  12.251  0.00  0.00    +0.025 C 
ATOM      9  CG2 ILE A   1      10.082   8.336  13.287  0.00  0.00    +0.002 C 
BRANCH   8  10
ATOM     10  CG1 ILE A   1      10.287   9.452  11.069  0.00  0.00    +0.002 C 
ATOM     11  CD1 ILE A   1      11.447  10.444  11.466  0.00  0.00    +0.000 C 
ENDBRANCH   8  10
ENDBRANCH   5   8
ENDBRANCH   1   5
BRANCH   2  12
ATOM     12  CA  GLN A   2       8.789   4.971  10.474  0.00  0.00    +0.137 C 
BRANCH  12  13
ATOM     13  C   GLN A   2       8.534   3.698  11.223  0.00  0.00    +0.227 C 
ATOM     14  O   GLN A   2       8.481   3.722  12.465  0.00  0.00    -0.286 OA
ENDBRANCH  12  13
BRANCH  12  15
ATOM     15  CB  GLN A   2      10.239   4.943   9.934  0.00  0.00    +0.037 C 
BRANCH  15  16
ATOM     16  CG  GLN A   2      11.287   4.999  11.111  0.00  0.00    +0.087 C 
BRANCH  16  17
ATOM     17  CD  GLN A   2      12.022   3.714  11.318  0.00  0.00    +0.219 C 
ATOM     18  NE2 GLN A   2      13.347   3.830  11.488  0.00  0.00    -0.329 N 
ATOM     19 HE21 GLN A   2      13.931   2.979  11.620  0.00  0.00    +0.145 HD
ATOM     20 HE22 GLN A   2      13.791   4.771  11.488  0.00  0.00    +0.145 HD
ATOM     21  OE1 GLN A   2      11.439   2.648  11.307  0.00  0.00    -0.275 OA
ENDBRANCH  16  17
ENDBRANCH  15  16
ENDBRANCH  12  15
ENDBRANCH   2  12
TORSDOF 9
REMARK  Name = ../refined-set-2016/4q90/4q90_pocket.pdb
REMARK  121 active torsions:
REMARK  status: ('A' for Active; 'I' for Inactive)
REMARK    1  A    between atoms: _1  and  _3
REMARK    2  A    between atoms: _3  and  _4
REMARK    3  A    between atoms: _3  and  _6
REMARK    4  A    between atoms: _6  and  _7
REMARK    5  A    between atoms: _17  and  _19
REMARK    6  A    between atoms: _19  and  _20
REMARK    7  A    between atoms: _19  and  _22
REMARK    8  A    between atoms: _22  and  _23
REMARK    9  A    between atoms: _28  and  _29
REMARK   10  A    between atoms: _31  and  _33
REMARK   11  A    between atoms: _33  and  _34
REMARK   12  A    between atoms: _33  and  _36
REMARK   13  A    between atoms: _36  and  _37
REMARK   14  A    between atoms: _39  and  _41
REMARK   15  A    between atoms: _41  and  _42
REMARK   16  A    between atoms: _41  and  _44
REMARK   17  A    between atoms: _44  and  _45
REMARK   18  A    between atoms: _50  and  _52
REMARK   19  A    between atoms: _52  and  _53
REMARK   20  A    between atoms: _52  and  _55
REMARK   21  A    between atoms: _55  and  _56
REMARK   22  A    between atoms: _61  and  _63
REMARK   23  A    between atoms: _63  and  _64
REMARK   24  A    between atoms: _67  and  _69
REMARK   25  A    between atoms: _69  and  _70
REMARK   26  A    between atoms: _69  and  _72
REMARK   27  A    between atoms: _72  and  _73
REMARK   28  A    between atoms: _78  and  _80
REMARK   29  A    between atoms: _80  and  _81
REMARK   30  A    between atoms: _80  and  _83
REMARK   31  A    between atoms: _83  and  _84
REMARK   32  A    between atoms: _87  and  _89
REMARK   33  A    between atoms: _89  and  _90
REMARK   34  A    between atoms: _89  and  _92
REMARK   35  A    between atoms: _92  and  _93
REMARK   36  A    between atoms: _93  and  _94
REMARK   37  A    between atoms: _99  and  _101
REMARK   38  A    between atoms: _112  and  _115
REMARK   39  A    between atoms: _115  and  _116
REMARK   40  A    between atoms: _124  and  _125
REMARK   41  A    between atoms: _133  and  _135
REMARK   42  A    between atoms: _135  and  _136
REMARK   43  A    between atoms: _135  and  _138
REMARK   44  A    between atoms: _138  and  _139
REMARK   45  A    between atoms: _139  and  _140
REMARK   46  A    between atoms: _143  and  _145
REMARK   47  A    between atoms: _145  and  _146
REMARK   48  A    between atoms: _145  and  _148
REMARK   49  A    between atoms: _148  and  _149
REMARK   50  A    between atoms: _154  and  _156
REMARK   51  A    between atoms: _156  and  _157
REMARK   52  A    between atoms: _156  and  _159
REMARK   53  A    between atoms: _159  and  _160
REMARK   54  A    between atoms: _160  and  _161
REMARK   55  A    between atoms: _164  and  _166
REMARK   56  A    between atoms: _166  and  _167
REMARK   57  A    between atoms: _166  and  _169
REMARK   58  A    between atoms: _169  and  _170
REMARK   59  A    between atoms: _173  and  _175
REMARK   60  A    between atoms: _175  and  _176
REMARK   61  A    between atoms: _175  and  _178
REMARK   62  A    between atoms: _178  and  _179
REMARK   63  A    between atoms: _180  and  ZN_340
REMARK   64  A    between atoms: _184  and  _186
REMARK   65  A    between atoms: _186  and  _187
REMARK   66  A    between atoms: _186  and  _189
REMARK   67  A    between atoms: _189  and  _190
REMARK   68  A    between atoms: _193  and  _195
REMARK   69  A    between atoms: _195  and  _196
REMARK   70  A    between atoms: _195  and  _198
REMARK   71  A    between atoms: _201  and  _203
REMARK   72  A    between atoms: _203  and  _204
REMARK   73  A    between atoms: _203  and  _206
REMARK   74  A    between atoms: _206  and  _207
REMARK   75  A    between atoms: _212  and  _214
REMARK   76  A    between atoms: _214  and  _215
REMARK   77  A    between atoms: _214  and  _217
REMARK   78  A    between atoms: _217  and  _218
REMARK   79  A    between atoms: _224  and  _226
REMARK   80  A    between atoms: _226  and  _227
REMARK   81  A    between atoms: _226  and  _229
REMARK   82  A    between atoms: _232  and  _234
REMARK   83  A    between atoms: _234  and  _235
REMARK   84  A    between atoms: _234  and  _237
REMARK   85  A    between atoms: _237  and  _238
REMARK   86  A    between atoms: _241  and  _243
REMARK   87  A    between atoms: _243  and  _244
REMARK   88  A    between atoms: _243  and  _246
REMARK   89  A    between atoms: _249  and  _251
REMARK   90  A    between atoms: _251  and  _252
REMARK   91  A    between atoms: _251  and  _254
REMARK   92  A    between atoms: _254  and  _255
REMARK   93  A    between atoms: _257  and  _259
REMARK   94  A    between atoms: _259  and  _260
REMARK   95  A    between atoms: _259  and  _262
REMARK   96  A    between atoms: _262  and  _263
REMARK   97  A    between atoms: _266  and  _268
REMARK   98  A    between atoms: _268  and  _269
REMARK   99  A    between atoms: _268  and  _271
REMARK  100  A    between atoms: _271  and  _272
REMARK  101  A    between atoms: _275  and  _277
REMARK  102  A    between atoms: _277  and  _278
REMARK  103  A    between atoms: _277  and  _280
REMARK  104  A    between atoms: _280  and  _281
REMARK  105  A    between atoms: _285  and  _286
REMARK  106  A    between atoms: _292  and  _293
REMARK  107  A    between atoms: _298  and  _300
REMARK  108  A    between atoms: _300  and  _301
REMARK  109  A    between atoms: _300  and  _303
REMARK  110  A    between atoms: _303  and  _304
REMARK  111  A    between atoms: _307  and  _309
REMARK  112  A    between atoms: _309  and  _310
REMARK  113  A    between atoms: _309  and  _312
REMARK  114  A    between atoms: _312  and  _313
REMARK  115  A    between atoms: _316  and  _318
REMARK  116  A    between atoms: _318  and  _319
REMARK  117  A    between atoms: _318  and  _321
REMARK  118  A    between atoms: _324  and  _326
REMARK  119  A    between atoms: _326  and  _327
REMARK  120  A    between atoms: _326  and  _329
REMARK  121  A    between atoms: _329  and  _330
REMARK                            x       y       z     vdW  Elec       q    Type
REMARK                         _______ _______ _______ _____ _____    ______ ____
ROOT
ATOM      1  C   UNK A   3       9.347  -1.544  15.698  0.00  0.00    +0.000 C 
ENDROOT
BRANCH   1   2
ATOM      2  C   UNK A   3       8.669  -0.426  15.015  0.00  0.00    +0.000 C 
ATOM      3  N   LEU A   4       7.636   0.151  15.663  0.00  0.00    +0.000 N 
ATOM      4  H   LEU A   4       7.267  -0.314  16.517  0.00  0.00    +0.000 HD
ATOM      5  O   UNK A   3       9.095  -0.040  13.913  0.00  0.00    +0.000 OA
BRANCH   3   6
ATOM      6  CA  LEU A   4       6.991   1.435  15.212  0.00  0.00    +0.000 C 
BRANCH   6   7
ATOM      7  C   LEU A   4       7.602   2.585  15.973  0.00  0.00    +0.000 C 
ATOM      8  O   LEU A   4       7.455   2.593  17.193  0.00  0.00    +0.000 OA
ATOM      9  N   VAL A   5       8.389   3.404  15.276  0.00  0.00    +0.000 N 
ATOM     10  H   VAL A   5       8.444   3.312  14.242  0.00  0.00    +0.000 HD
BRANCH   9  11
ATOM     11  CA  VAL A   5       9.195   4.456  15.974  0.00  0.00    +0.000 C 
BRANCH  11  12
ATOM     12  C   VAL A   5       8.455   5.785  15.954  0.00  0.00    +0.000 C 
ATOM     13  N   HIS A   6       8.387   6.377  17.155  0.00  0.00    +0.000 N 
ATOM     14  H   HIS A   6       8.823   5.920  17.982  0.00  0.00    +0.000 HD
ATOM     15  O   VAL A   5       8.004   6.255  14.910  0.00  0.00    +0.000 OA
BRANCH  13  16
ATOM     16  CA  HIS A   6       7.704   7.661  17.310  0.00  0.00    +0.000 C 
BRANCH  16  17
ATOM     17  C   HIS A   6       8.598   8.626  18.066  0.00  0.00    +0.000 C 
ATOM     18  O   HIS A   6       9.280   8.241  18.976  0.00  0.00    +0.000 OA
ENDBRANCH  16  17
BRANCH  16  19
ATOM     19  CB  HIS A   6       6.387   7.498  18.137  0.00  0.00    +0.000 C 
BRANCH  19  20
ATOM     20  CG  HIS A   6       5.482   6.373  17.664  0.00  0.00    +0.000 A 
ATOM     21  ND1 HIS A   6       5.818   5.039  17.949  0.00  0.00    +0.000 NA
ATOM     22  CE1 HIS A   6       4.812   4.266  17.511  0.00  0.00    +0.000 A 
ATOM     23  NE2 HIS A   6       3.877   5.041  16.957  0.00  0.00    +0.000 NA
ATOM     24  CD2 HIS A   6       4.259   6.369  17.082  0.00  0.00    +0.000 A 
ENDBRANCH  19  20
ENDBRANCH  16  19
ENDBRANCH  13  16
ENDBRANCH  11  12
BRANCH  11  25
ATOM     25  CB  VAL A   5      10.467   4.645  15.202  0.00  0.00    +0.000 C 
ATOM     26  CG2 VAL A   5      11.326   5.725  15.842  0.00  0.00    +0.000 C 
ATOM     27  CG1 VAL A   5      11.254   3.297  15.085  0.00  0.00    +0.000 C 
ENDBRANCH  11  25
ENDBRANCH   9  11
ENDBRANCH   6   7
BRANCH   6  28
ATOM     28  CB  LEU A   4       5.437   1.353  15.384  0.00  0.00    +0.000 C 
BRANCH  28  29
ATOM     29  CG  LEU A   4       4.848   0.240  14.504  0.00  0.00    +0.000 C 
ATOM     30  CD2 LEU A   4       4.006  -0.648  15.343  0.00  0.00    +0.000 C 
ATOM     31  CD1 LEU A   4       3.949   0.881  13.488  0.00  0.00    +0.000 C 
ENDBRANCH  28  29
ENDBRANCH   6  28
ENDBRANCH   3   6
ENDBRANCH   1   2
BRANCH   1  32
ATOM     32  N   UNK A   3       9.081  -2.758  14.911  0.00  0.00    +0.000 N 
ATOM     33  C   LEU A   2       8.432  -3.824  15.396  0.00  0.00    +0.000 C 
ATOM     34  O   LEU A   2       8.060  -3.917  16.563  0.00  0.00    +0.000 OA
ATOM     35  H   UNK A   3       9.414  -2.790  13.926  0.00  0.00    +0.000 HD
BRANCH  33  36
ATOM     36  CA  LEU A   2       8.222  -4.974  14.417  0.00  0.00    +0.000 C 
BRANCH  36  37
ATOM     37  N   LEU A   2       8.589  -6.255  15.039  0.00  0.00    +0.000 N 
ATOM     38  H   LEU A   2       7.849  -6.754  15.573  0.00  0.00    +0.000 HD
ATOM     39  C   UNK A   1       9.769  -6.820  14.977  0.00  0.00    +0.000 C 
ATOM     40  O   UNK A   1      10.706  -6.406  14.252  0.00  0.00    +0.000 OA
BRANCH  39  41
ATOM     41  C   UNK A   1       9.960  -8.089  15.801  0.00  0.00    +0.000 C 
BRANCH  41  42
ATOM     42  N   UNK A   1      10.487  -9.110  14.873  0.00  0.00    +0.000 NA
ATOM     43  H   UNK A   1      11.117  -8.832  14.094  0.00  0.00    +0.000 HD
ENDBRANCH  41  42
BRANCH  41  44
ATOM     44  C   UNK A   1      10.940  -7.887  16.931  0.00  0.00    +0.000 C 
BRANCH  44  45
ATOM     45  C   UNK A   1      10.408  -6.860  17.971  0.00  0.00    +0.000 C 
BRANCH  45  46
ATOM     46  C   UNK A   1      11.306  -6.850  19.204  0.00  0.00    +0.000 C 
ATOM     47  O   UNK A   1      11.424  -5.790  19.839  0.00  0.00    +0.000 OA
ATOM     48  O   UNK A   1      11.920  -7.860  19.541  0.00  0.00    +0.000 OA
ENDBRANCH  45  46
ENDBRANCH  44  45
ENDBRANCH  41  44
ENDBRANCH  39  41
ENDBRANCH  36  37
BRANCH  36  49
ATOM     49  CB  LEU A   2       6.751  -5.062  14.058  0.00  0.00    +0.000 C 
BRANCH  49  50
ATOM     50  CG  LEU A   2       6.001  -3.739  13.715  0.00  0.00    +0.000 C 
ATOM     51  CD2 LEU A   2       4.574  -4.113  13.489  0.00  0.00    +0.000 C 
ATOM     52  CD1 LEU A   2       6.589  -3.194  12.401  0.00  0.00    +0.000 C 
ENDBRANCH  49  50
ENDBRANCH  36  49
ENDBRANCH  33  36
ENDBRANCH   1  32
BRANCH   1  53
ATOM     53  C   UNK A   3      10.826  -1.293  15.729  0.00  0.00    +0.000 C 
BRANCH  53  58
ATOM     54  N   UNK A   3      12.852  -2.505  16.662  0.00  0.00    +0.000 N 
ATOM     55  C   UNK A   3      13.151  -3.432  17.556  0.00  0.00    +0.000 A 
ATOM     56  N   UNK A   3      12.027  -3.836  18.153  0.00  0.00    +0.000 NA
ATOM     57  C   UNK A   3      10.963  -3.143  17.562  0.00  0.00    +0.000 A 
ATOM     58  C   UNK A   3      11.491  -2.304  16.632  0.00  0.00    +0.000 A 
BRANCH  54  72
ATOM     59  C   UNK A   1      10.810  -1.536  10.414  0.00  0.00    +0.000 C 
ATOM     60  C   UNK A   1      10.706  -2.824  11.199  0.00  0.00    +0.000 C 
ATOM     61  O   UNK A   1      10.072  -2.860  12.246  0.00  0.00    +0.000 OA
ATOM     62  N   LEU A   2      11.432  -3.869  10.739  0.00  0.00    +0.000 N 
ATOM     63  CA  LEU A   2      11.459  -5.162  11.433  0.00  0.00    +0.000 C 
ATOM     64  C   LEU A   2      12.916  -5.591  11.633  0.00  0.00    +0.000 C 
ATOM     65  N   UNK A   3      13.031  -6.541  12.556  0.00  0.00    +0.000 N 
ATOM     66  H   UNK A   3      12.227  -6.713  13.193  0.00  0.00    +0.000 HD
ATOM     67  C   UNK A   3      14.229  -7.352  12.718  0.00  0.00    +0.000 C 
ATOM     68  C   UNK A   3      14.858  -7.098  14.084  0.00  0.00    +0.000 C 
ATOM     69  C   UNK A   3      15.133  -5.637  14.396  0.00  0.00    +0.000 A 
ATOM     70  C   UNK A   3      14.349  -4.618  14.818  0.00  0.00    +0.000 A 
ATOM     71  N   UNK A   3      15.137  -3.486  14.870  0.00  0.00    +0.000 N 
ATOM     72 ZN   UNK A   3      14.393  -1.681  15.504  0.00  0.00    +0.000 Zn
ATOM     73  N   UNK A   1      13.636  -0.868  13.759  0.00  0.00    +0.000 N 
ATOM     74  C   UNK A   1      13.140   0.357  13.574  0.00  0.00    +0.000 A 
ATOM     75  N   UNK A   1      12.631   0.417  12.356  0.00  0.00    +0.000 NA
ATOM     76  C   UNK A   1      12.797  -0.802  11.747  0.00  0.00    +0.000 A 
ATOM     77  C   UNK A   1      13.458  -1.599  12.615  0.00  0.00    +0.000 A 
ATOM     78  C   UNK A   3      16.381  -3.806  14.549  0.00  0.00    +0.000 A 
ATOM     79  N   UNK A   3      16.399  -5.106  14.200  0.00  0.00    +0.000 NA
ATOM     80  O   LEU A   2      13.819  -5.153  10.940  0.00  0.00    +0.000 OA
ATOM     81  H   LEU A   2      11.988  -3.753   9.868  0.00  0.00    +0.000 HD
ATOM     82  C   UNK A   1      12.280  -1.061  10.374  0.00  0.00    +0.000 C 
BRANCH  59  83
ATOM     83  N   UNK A   1       9.916  -0.569  11.040  0.00  0.00    +0.000 NA
ATOM     84  H   UNK A   1       9.692  -0.657  12.052  0.00  0.00    +0.000 HD
ENDBRANCH  59  83
BRANCH  67  85
ATOM     85  C   UNK A   3      13.823  -8.818  12.606  0.00  0.00    +0.000 C 
ATOM     86  O   UNK A   3      12.742  -9.176  13.126  0.00  0.00    +0.000 OA
ENDBRANCH  67  85
BRANCH  63  87
ATOM     87  CB  LEU A   2      10.755  -6.272  10.603  0.00  0.00    +0.000 C 
BRANCH  87  88
ATOM     88  CG  LEU A   2       9.324  -5.956  10.250  0.00  0.00    +0.000 A 
ATOM     89  CD2 LEU A   2       8.296  -6.607  10.938  0.00  0.00    +0.000 A 
ATOM     90  CE2 LEU A   2       6.958  -6.398  10.599  0.00  0.00    +0.000 A 
ATOM     91  CZ  LEU A   2       6.656  -5.466   9.532  0.00  0.00    +0.000 A 
ATOM     92  CE1 LEU A   2       7.628  -4.856   8.812  0.00  0.00    +0.000 A 
ATOM     93  CD1 LEU A   2       8.996  -5.052   9.189  0.00  0.00    +0.000 A 
ENDBRANCH  87  88
ENDBRANCH  63  87
ENDBRANCH  54  72
ENDBRANCH  53  58
ENDBRANCH   1  53
TORSDOF 29
REMARK  Name = ../refined-set-2016/4q90/4q90_pocket.pdb
REMARK  121 active torsions:
REMARK  status: ('A' for Active; 'I' for Inactive)
REMARK    1  A    between atoms: _1  and  _3
REMARK    2  A    between atoms: _3  and  _4
REMARK    3  A    between atoms: _3  and  _6
REMARK    4  A    between atoms: _6  and  _7
REMARK    5  A    between atoms: _17  and  _19
REMARK    6  A    between atoms: _19  and  _20
REMARK    7  A    between atoms: _19  and  _22
REMARK    8  A    between atoms: _22  and  _23
REMARK    9  A    between atoms: _28  and  _29
REMARK   10  A    between atoms: _31  and  _33
REMARK   11  A    between atoms: _33  and  _34
REMARK   12  A    between atoms: _33  and  _36
REMARK   13  A    between atoms: _36  and  _37
REMARK   14  A    between atoms: _39  and  _41
REMARK   15  A    between atoms: _41  and  _42
REMARK   16  A    between atoms: _41  and  _44
REMARK   17  A    between atoms: _44  and  _45
REMARK   18  A    between atoms: _50  and  _52
REMARK   19  A    between atoms: _52  and  _53
REMARK   20  A    between atoms: _52  and  _55
REMARK   21  A    between atoms: _55  and  _56
REMARK   22  A    between atoms: _61  and  _63
REMARK   23  A    between atoms: _63  and  _64
REMARK   24  A    between atoms: _67  and  _69
REMARK   25  A    between atoms: _69  and  _70
REMARK   26  A    between atoms: _69  and  _72
REMARK   27  A    between atoms: _72  and  _73
REMARK   28  A    between atoms: _78  and  _80
REMARK   29  A    between atoms: _80  and  _81
REMARK   30  A    between atoms: _80  and  _83
REMARK   31  A    between atoms: _83  and  _84
REMARK   32  A    between atoms: _87  and  _89
REMARK   33  A    between atoms: _89  and  _90
REMARK   34  A    between atoms: _89  and  _92
REMARK   35  A    between atoms: _92  and  _93
REMARK   36  A    between atoms: _93  and  _94
REMARK   37  A    between atoms: _99  and  _101
REMARK   38  A    between atoms: _112  and  _115
REMARK   39  A    between atoms: _115  and  _116
REMARK   40  A    between atoms: _124  and  _125
REMARK   41  A    between atoms: _133  and  _135
REMARK   42  A    between atoms: _135  and  _136
REMARK   43  A    between atoms: _135  and  _138
REMARK   44  A    between atoms: _138  and  _139
REMARK   45  A    between atoms: _139  and  _140
REMARK   46  A    between atoms: _143  and  _145
REMARK   47  A    between atoms: _145  and  _146
REMARK   48  A    between atoms: _145  and  _148
REMARK   49  A    between atoms: _148  and  _149
REMARK   50  A    between atoms: _154  and  _156
REMARK   51  A    between atoms: _156  and  _157
REMARK   52  A    between atoms: _156  and  _159
REMARK   53  A    between atoms: _159  and  _160
REMARK   54  A    between atoms: _160  and  _161
REMARK   55  A    between atoms: _164  and  _166
REMARK   56  A    between atoms: _166  and  _167
REMARK   57  A    between atoms: _166  and  _169
REMARK   58  A    between atoms: _169  and  _170
REMARK   59  A    between atoms: _173  and  _175
REMARK   60  A    between atoms: _175  and  _176
REMARK   61  A    between atoms: _175  and  _178
REMARK   62  A    between atoms: _178  and  _179
REMARK   63  A    between atoms: _180  and  ZN_340
REMARK   64  A    between atoms: _184  and  _186
REMARK   65  A    between atoms: _186  and  _187
REMARK   66  A    between atoms: _186  and  _189
REMARK   67  A    between atoms: _189  and  _190
REMARK   68  A    between atoms: _193  and  _195
REMARK   69  A    between atoms: _195  and  _196
REMARK   70  A    between atoms: _195  and  _198
REMARK   71  A    between atoms: _201  and  _203
REMARK   72  A    between atoms: _203  and  _204
REMARK   73  A    between atoms: _203  and  _206
REMARK   74  A    between atoms: _206  and  _207
REMARK   75  A    between atoms: _212  and  _214
REMARK   76  A    between atoms: _214  and  _215
REMARK   77  A    between atoms: _214  and  _217
REMARK   78  A    between atoms: _217  and  _218
REMARK   79  A    between atoms: _224  and  _226
REMARK   80  A    between atoms: _226  and  _227
REMARK   81  A    between atoms: _226  and  _229
REMARK   82  A    between atoms: _232  and  _234
REMARK   83  A    between atoms: _234  and  _235
REMARK   84  A    between atoms: _234  and  _237
REMARK   85  A    between atoms: _237  and  _238
REMARK   86  A    between atoms: _241  and  _243
REMARK   87  A    between atoms: _243  and  _244
REMARK   88  A    between atoms: _243  and  _246
REMARK   89  A    between atoms: _249  and  _251
REMARK   90  A    between atoms: _251  and  _252
REMARK   91  A    between atoms: _251  and  _254
REMARK   92  A    between atoms: _254  and  _255
REMARK   93  A    between atoms: _257  and  _259
REMARK   94  A    between atoms: _259  and  _260
REMARK   95  A    between atoms: _259  and  _262
REMARK   96  A    between atoms: _262  and  _263
REMARK   97  A    between atoms: _266  and  _268
REMARK   98  A    between atoms: _268  and  _269
REMARK   99  A    between atoms: _268  and  _271
REMARK  100  A    between atoms: _271  and  _272
REMARK  101  A    between atoms: _275  and  _277
REMARK  102  A    between atoms: _277  and  _278
REMARK  103  A    between atoms: _277  and  _280
REMARK  104  A    between atoms: _280  and  _281
REMARK  105  A    between atoms: _285  and  _286
REMARK  106  A    between atoms: _292  and  _293
REMARK  107  A    between atoms: _298  and  _300
REMARK  108  A    between atoms: _300  and  _301
REMARK  109  A    between atoms: _300  and  _303
REMARK  110  A    between atoms: _303  and  _304
REMARK  111  A    between atoms: _307  and  _309
REMARK  112  A    between atoms: _309  and  _310
REMARK  113  A    between atoms: _309  and  _312
REMARK  114  A    between atoms: _312  and  _313
REMARK  115  A    between atoms: _316  and  _318
REMARK  116  A    between atoms: _318  and  _319
REMARK  117  A    between atoms: _318  and  _321
REMARK  118  A    between atoms: _324  and  _326
REMARK  119  A    between atoms: _326  and  _327
REMARK  120  A    between atoms: _326  and  _329
REMARK  121  A    between atoms: _329  and  _330
REMARK                            x       y       z     vdW  Elec       q    Type
REMARK                         _______ _______ _______ _____ _____    ______ ____
ROOT
ATOM      1  C   GLU A   1      15.056  -8.662  21.124  0.00  0.00    +0.238 C 
ATOM      2  O   GLU A   1      15.823  -9.303  21.899  0.00  0.00    -0.274 OA
ATOM      3  N   HIS A   2      13.843  -8.258  21.519  0.00  0.00    -0.298 N 
ATOM      4  H   HIS A   2      13.232  -7.698  20.891  0.00  0.00    +0.150 HD
ENDROOT
BRANCH   1   5
ATOM      5  CA  GLU A   1      15.409  -8.548  19.643  0.00  0.00    +0.145 C 
BRANCH   5   6
ATOM      6  N   GLU A   1      14.390  -9.248  18.815  0.00  0.00    -0.238 NA
ATOM      7  H   GLU A   1      13.536  -8.731  18.524  0.00  0.00    +0.142 HD
ENDBRANCH   5   6
BRANCH   5   8
ATOM      8  CB  GLU A   1      15.412  -7.101  19.218  0.00  0.00    +0.038 C 
BRANCH   8   9
ATOM      9  CG  GLU A   1      15.898  -7.016  17.766  0.00  0.00    +0.116 C 
BRANCH   9  10
ATOM     10  CD  GLU A   1      16.618  -5.719  17.532  0.00  0.00    +0.365 C 
ATOM     11  OE2 GLU A   1      16.015  -4.625  17.687  0.00  0.00    -0.246 OA
ATOM     12  OE1 GLU A   1      17.728  -5.719  17.078  0.00  0.00    -0.246 OA
ENDBRANCH   9  10
ENDBRANCH   8   9
ENDBRANCH   5   8
ENDBRANCH   1   5
BRANCH   3  13
ATOM     13  CA  HIS A   2      13.401  -8.634  22.875  0.00  0.00    +0.143 C 
BRANCH  13  14
ATOM     14  C   HIS A   2      13.110 -10.095  22.892  0.00  0.00    +0.227 C 
ATOM     15  O   HIS A   2      12.744 -10.675  21.875  0.00  0.00    -0.286 OA
ENDBRANCH  13  14
BRANCH  13  16
ATOM     16  CB  HIS A   2      12.171  -7.804  23.268  0.00  0.00    +0.075 C 
BRANCH  16  17
ATOM     17  CG  HIS A   2      12.525  -6.352  23.402  0.00  0.00    +0.082 A 
ATOM     18  CD2 HIS A   2      12.980  -5.648  24.480  0.00  0.00    +0.115 A 
ATOM     19  NE2 HIS A   2      13.209  -4.367  24.043  0.00  0.00    -0.221 NA
ATOM     20  CE1 HIS A   2      12.882  -4.274  22.769  0.00  0.00    +0.199 A 
ATOM     21  ND1 HIS A   2      12.452  -5.460  22.350  0.00  0.00    -0.227 NA
ENDBRANCH  16  17
ENDBRANCH  13  16
ENDBRANCH   3  13
TORSDOF 9
REMARK  Name = ../refined-set-2016/4q90/4q90_pocket.pdb
REMARK  121 active torsions:
REMARK  status: ('A' for Active; 'I' for Inactive)
REMARK    1  A    between atoms: _1  and  _3
REMARK    2  A    between atoms: _3  and  _4
REMARK    3  A    between atoms: _3  and  _6
REMARK    4  A    between atoms: _6  and  _7
REMARK    5  A    between atoms: _17  and  _19
REMARK    6  A    between atoms: _19  and  _20
REMARK    7  A    between atoms: _19  and  _22
REMARK    8  A    between atoms: _22  and  _23
REMARK    9  A    between atoms: _28  and  _29
REMARK   10  A    between atoms: _31  and  _33
REMARK   11  A    between atoms: _33  and  _34
REMARK   12  A    between atoms: _33  and  _36
REMARK   13  A    between atoms: _36  and  _37
REMARK   14  A    between atoms: _39  and  _41
REMARK   15  A    between atoms: _41  and  _42
REMARK   16  A    between atoms: _41  and  _44
REMARK   17  A    between atoms: _44  and  _45
REMARK   18  A    between atoms: _50  and  _52
REMARK   19  A    between atoms: _52  and  _53
REMARK   20  A    between atoms: _52  and  _55
REMARK   21  A    between atoms: _55  and  _56
REMARK   22  A    between atoms: _61  and  _63
REMARK   23  A    between atoms: _63  and  _64
REMARK   24  A    between atoms: _67  and  _69
REMARK   25  A    between atoms: _69  and  _70
REMARK   26  A    between atoms: _69  and  _72
REMARK   27  A    between atoms: _72  and  _73
REMARK   28  A    between atoms: _78  and  _80
REMARK   29  A    between atoms: _80  and  _81
REMARK   30  A    between atoms: _80  and  _83
REMARK   31  A    between atoms: _83  and  _84
REMARK   32  A    between atoms: _87  and  _89
REMARK   33  A    between atoms: _89  and  _90
REMARK   34  A    between atoms: _89  and  _92
REMARK   35  A    between atoms: _92  and  _93
REMARK   36  A    between atoms: _93  and  _94
REMARK   37  A    between atoms: _99  and  _101
REMARK   38  A    between atoms: _112  and  _115
REMARK   39  A    between atoms: _115  and  _116
REMARK   40  A    between atoms: _124  and  _125
REMARK   41  A    between atoms: _133  and  _135
REMARK   42  A    between atoms: _135  and  _136
REMARK   43  A    between atoms: _135  and  _138
REMARK   44  A    between atoms: _138  and  _139
REMARK   45  A    between atoms: _139  and  _140
REMARK   46  A    between atoms: _143  and  _145
REMARK   47  A    between atoms: _145  and  _146
REMARK   48  A    between atoms: _145  and  _148
REMARK   49  A    between atoms: _148  and  _149
REMARK   50  A    between atoms: _154  and  _156
REMARK   51  A    between atoms: _156  and  _157
REMARK   52  A    between atoms: _156  and  _159
REMARK   53  A    between atoms: _159  and  _160
REMARK   54  A    between atoms: _160  and  _161
REMARK   55  A    between atoms: _164  and  _166
REMARK   56  A    between atoms: _166  and  _167
REMARK   57  A    between atoms: _166  and  _169
REMARK   58  A    between atoms: _169  and  _170
REMARK   59  A    between atoms: _173  and  _175
REMARK   60  A    between atoms: _175  and  _176
REMARK   61  A    between atoms: _175  and  _178
REMARK   62  A    between atoms: _178  and  _179
REMARK   63  A    between atoms: _180  and  ZN_340
REMARK   64  A    between atoms: _184  and  _186
REMARK   65  A    between atoms: _186  and  _187
REMARK   66  A    between atoms: _186  and  _189
REMARK   67  A    between atoms: _189  and  _190
REMARK   68  A    between atoms: _193  and  _195
REMARK   69  A    between atoms: _195  and  _196
REMARK   70  A    between atoms: _195  and  _198
REMARK   71  A    between atoms: _201  and  _203
REMARK   72  A    between atoms: _203  and  _204
REMARK   73  A    between atoms: _203  and  _206
REMARK   74  A    between atoms: _206  and  _207
REMARK   75  A    between atoms: _212  and  _214
REMARK   76  A    between atoms: _214  and  _215
REMARK   77  A    between atoms: _214  and  _217
REMARK   78  A    between atoms: _217  and  _218
REMARK   79  A    between atoms: _224  and  _226
REMARK   80  A    between atoms: _226  and  _227
REMARK   81  A    between atoms: _226  and  _229
REMARK   82  A    between atoms: _232  and  _234
REMARK   83  A    between atoms: _234  and  _235
REMARK   84  A    between atoms: _234  and  _237
REMARK   85  A    between atoms: _237  and  _238
REMARK   86  A    between atoms: _241  and  _243
REMARK   87  A    between atoms: _243  and  _244
REMARK   88  A    between atoms: _243  and  _246
REMARK   89  A    between atoms: _249  and  _251
REMARK   90  A    between atoms: _251  and  _252
REMARK   91  A    between atoms: _251  and  _254
REMARK   92  A    between atoms: _254  and  _255
REMARK   93  A    between atoms: _257  and  _259
REMARK   94  A    between atoms: _259  and  _260
REMARK   95  A    between atoms: _259  and  _262
REMARK   96  A    between atoms: _262  and  _263
REMARK   97  A    between atoms: _266  and  _268
REMARK   98  A    between atoms: _268  and  _269
REMARK   99  A    between atoms: _268  and  _271
REMARK  100  A    between atoms: _271  and  _272
REMARK  101  A    between atoms: _275  and  _277
REMARK  102  A    between atoms: _277  and  _278
REMARK  103  A    between atoms: _277  and  _280
REMARK  104  A    between atoms: _280  and  _281
REMARK  105  A    between atoms: _285  and  _286
REMARK  106  A    between atoms: _292  and  _293
REMARK  107  A    between atoms: _298  and  _300
REMARK  108  A    between atoms: _300  and  _301
REMARK  109  A    between atoms: _300  and  _303
REMARK  110  A    between atoms: _303  and  _304
REMARK  111  A    between atoms: _307  and  _309
REMARK  112  A    between atoms: _309  and  _310
REMARK  113  A    between atoms: _309  and  _312
REMARK  114  A    between atoms: _312  and  _313
REMARK  115  A    between atoms: _316  and  _318
REMARK  116  A    between atoms: _318  and  _319
REMARK  117  A    between atoms: _318  and  _321
REMARK  118  A    between atoms: _324  and  _326
REMARK  119  A    between atoms: _326  and  _327
REMARK  120  A    between atoms: _326  and  _329
REMARK  121  A    between atoms: _329  and  _330
REMARK                            x       y       z     vdW  Elec       q    Type
REMARK                         _______ _______ _______ _____ _____    ______ ____
ROOT
ATOM      1  CB  PHE A   1      13.258  12.651  14.038  0.00  0.00    +0.051 C 
ENDROOT
BRANCH   1   2
ATOM      2  CG  PHE A   1      13.923  11.333  14.299  0.00  0.00    -0.020 A 
ATOM      3  CD2 PHE A   1      13.263  10.315  14.967  0.00  0.00    -0.004 A 
ATOM      4  CE2 PHE A   1      13.855   9.152  15.238  0.00  0.00    -0.000 A 
ATOM      5  CZ  PHE A   1      15.206   8.951  14.894  0.00  0.00    -0.000 A 
ATOM      6  CE1 PHE A   1      15.917   9.992  14.249  0.00  0.00    -0.000 A 
ATOM      7  CD1 PHE A   1      15.265  11.171  13.974  0.00  0.00    -0.004 A 
ENDBRANCH   1   2
BRANCH   1   8
ATOM      8  CA  PHE A   1      13.392  13.649  15.222  0.00  0.00    +0.137 C 
BRANCH   8   9
ATOM      9  N   PHE A   1      12.779  14.910  14.819  0.00  0.00    -0.239 NA
ATOM     10  H   PHE A   1      12.390  15.017  13.860  0.00  0.00    +0.142 HD
ENDBRANCH   8   9
BRANCH   8  11
ATOM     11  C   PHE A   1      14.830  13.823  15.634  0.00  0.00    +0.224 C 
ATOM     12  O   PHE A   1      15.290  13.189  16.593  0.00  0.00    -0.287 OA
ENDBRANCH   8  11
ENDBRANCH   1   8
TORSDOF 4
REMARK  Name = ../refined-set-2016/4q90/4q90_pocket.pdb
REMARK  121 active torsions:
REMARK  status: ('A' for Active; 'I' for Inactive)
REMARK    1  A    between atoms: _1  and  _3
REMARK    2  A    between atoms: _3  and  _4
REMARK    3  A    between atoms: _3  and  _6
REMARK    4  A    between atoms: _6  and  _7
REMARK    5  A    between atoms: _17  and  _19
REMARK    6  A    between atoms: _19  and  _20
REMARK    7  A    between atoms: _19  and  _22
REMARK    8  A    between atoms: _22  and  _23
REMARK    9  A    between atoms: _28  and  _29
REMARK   10  A    between atoms: _31  and  _33
REMARK   11  A    between atoms: _33  and  _34
REMARK   12  A    between atoms: _33  and  _36
REMARK   13  A    between atoms: _36  and  _37
REMARK   14  A    between atoms: _39  and  _41
REMARK   15  A    between atoms: _41  and  _42
REMARK   16  A    between atoms: _41  and  _44
REMARK   17  A    between atoms: _44  and  _45
REMARK   18  A    between atoms: _50  and  _52
REMARK   19  A    between atoms: _52  and  _53
REMARK   20  A    between atoms: _52  and  _55
REMARK   21  A    between atoms: _55  and  _56
REMARK   22  A    between atoms: _61  and  _63
REMARK   23  A    between atoms: _63  and  _64
REMARK   24  A    between atoms: _67  and  _69
REMARK   25  A    between atoms: _69  and  _70
REMARK   26  A    between atoms: _69  and  _72
REMARK   27  A    between atoms: _72  and  _73
REMARK   28  A    between atoms: _78  and  _80
REMARK   29  A    between atoms: _80  and  _81
REMARK   30  A    between atoms: _80  and  _83
REMARK   31  A    between atoms: _83  and  _84
REMARK   32  A    between atoms: _87  and  _89
REMARK   33  A    between atoms: _89  and  _90
REMARK   34  A    between atoms: _89  and  _92
REMARK   35  A    between atoms: _92  and  _93
REMARK   36  A    between atoms: _93  and  _94
REMARK   37  A    between atoms: _99  and  _101
REMARK   38  A    between atoms: _112  and  _115
REMARK   39  A    between atoms: _115  and  _116
REMARK   40  A    between atoms: _124  and  _125
REMARK   41  A    between atoms: _133  and  _135
REMARK   42  A    between atoms: _135  and  _136
REMARK   43  A    between atoms: _135  and  _138
REMARK   44  A    between atoms: _138  and  _139
REMARK   45  A    between atoms: _139  and  _140
REMARK   46  A    between atoms: _143  and  _145
REMARK   47  A    between atoms: _145  and  _146
REMARK   48  A    between atoms: _145  and  _148
REMARK   49  A    between atoms: _148  and  _149
REMARK   50  A    between atoms: _154  and  _156
REMARK   51  A    between atoms: _156  and  _157
REMARK   52  A    between atoms: _156  and  _159
REMARK   53  A    between atoms: _159  and  _160
REMARK   54  A    between atoms: _160  and  _161
REMARK   55  A    between atoms: _164  and  _166
REMARK   56  A    between atoms: _166  and  _167
REMARK   57  A    between atoms: _166  and  _169
REMARK   58  A    between atoms: _169  and  _170
REMARK   59  A    between atoms: _173  and  _175
REMARK   60  A    between atoms: _175  and  _176
REMARK   61  A    between atoms: _175  and  _178
REMARK   62  A    between atoms: _178  and  _179
REMARK   63  A    between atoms: _180  and  ZN_340
REMARK   64  A    between atoms: _184  and  _186
REMARK   65  A    between atoms: _186  and  _187
REMARK   66  A    between atoms: _186  and  _189
REMARK   67  A    between atoms: _189  and  _190
REMARK   68  A    between atoms: _193  and  _195
REMARK   69  A    between atoms: _195  and  _196
REMARK   70  A    between atoms: _195  and  _198
REMARK   71  A    between atoms: _201  and  _203
REMARK   72  A    between atoms: _203  and  _204
REMARK   73  A    between atoms: _203  and  _206
REMARK   74  A    between atoms: _206  and  _207
REMARK   75  A    between atoms: _212  and  _214
REMARK   76  A    between atoms: _214  and  _215
REMARK   77  A    between atoms: _214  and  _217
REMARK   78  A    between atoms: _217  and  _218
REMARK   79  A    between atoms: _224  and  _226
REMARK   80  A    between atoms: _226  and  _227
REMARK   81  A    between atoms: _226  and  _229
REMARK   82  A    between atoms: _232  and  _234
REMARK   83  A    between atoms: _234  and  _235
REMARK   84  A    between atoms: _234  and  _237
REMARK   85  A    between atoms: _237  and  _238
REMARK   86  A    between atoms: _241  and  _243
REMARK   87  A    between atoms: _243  and  _244
REMARK   88  A    between atoms: _243  and  _246
REMARK   89  A    between atoms: _249  and  _251
REMARK   90  A    between atoms: _251  and  _252
REMARK   91  A    between atoms: _251  and  _254
REMARK   92  A    between atoms: _254  and  _255
REMARK   93  A    between atoms: _257  and  _259
REMARK   94  A    between atoms: _259  and  _260
REMARK   95  A    between atoms: _259  and  _262
REMARK   96  A    between atoms: _262  and  _263
REMARK   97  A    between atoms: _266  and  _268
REMARK   98  A    between atoms: _268  and  _269
REMARK   99  A    between atoms: _268  and  _271
REMARK  100  A    between atoms: _271  and  _272
REMARK  101  A    between atoms: _275  and  _277
REMARK  102  A    between atoms: _277  and  _278
REMARK  103  A    between atoms: _277  and  _280
REMARK  104  A    between atoms: _280  and  _281
REMARK  105  A    between atoms: _285  and  _286
REMARK  106  A    between atoms: _292  and  _293
REMARK  107  A    between atoms: _298  and  _300
REMARK  108  A    between atoms: _300  and  _301
REMARK  109  A    between atoms: _300  and  _303
REMARK  110  A    between atoms: _303  and  _304
REMARK  111  A    between atoms: _307  and  _309
REMARK  112  A    between atoms: _309  and  _310
REMARK  113  A    between atoms: _309  and  _312
REMARK  114  A    between atoms: _312  and  _313
REMARK  115  A    between atoms: _316  and  _318
REMARK  116  A    between atoms: _318  and  _319
REMARK  117  A    between atoms: _318  and  _321
REMARK  118  A    between atoms: _324  and  _326
REMARK  119  A    between atoms: _326  and  _327
REMARK  120  A    between atoms: _326  and  _329
REMARK  121  A    between atoms: _329  and  _330
REMARK                            x       y       z     vdW  Elec       q    Type
REMARK                         _______ _______ _______ _____ _____    ______ ____
ROOT
ATOM      1  CA  VAL A   1      17.187  11.542  19.789  0.00  0.00    +0.101 C 
ENDROOT
BRANCH   1   2
ATOM      2  CB  VAL A   1      17.717  10.728  18.572  0.00  0.00    +0.018 C 
ATOM      3  CG2 VAL A   1      16.515  10.117  17.843  0.00  0.00    +0.002 C 
ATOM      4  CG1 VAL A   1      18.511  11.622  17.589  0.00  0.00    +0.002 C 
ENDBRANCH   1   2
BRANCH   1   5
ATOM      5  N   VAL A   1      16.226  12.665  19.449  0.00  0.00    -0.244 NA
ATOM      6  H   VAL A   1      16.231  13.101  18.505  0.00  0.00    +0.141 HD
ENDBRANCH   1   5
BRANCH   1   7
ATOM      7  C   VAL A   1      18.326  11.972  20.663  0.00  0.00    +0.199 C 
ATOM      8  O   VAL A   1      19.001  11.027  21.139  0.00  0.00    -0.219 OA
ENDBRANCH   1   7
TORSDOF 3
REMARK  Name = ../refined-set-2016/4q90/4q90_pocket.pdb
REMARK  121 active torsions:
REMARK  status: ('A' for Active; 'I' for Inactive)
REMARK    1  A    between atoms: _1  and  _3
REMARK    2  A    between atoms: _3  and  _4
REMARK    3  A    between atoms: _3  and  _6
REMARK    4  A    between atoms: _6  and  _7
REMARK    5  A    between atoms: _17  and  _19
REMARK    6  A    between atoms: _19  and  _20
REMARK    7  A    between atoms: _19  and  _22
REMARK    8  A    between atoms: _22  and  _23
REMARK    9  A    between atoms: _28  and  _29
REMARK   10  A    between atoms: _31  and  _33
REMARK   11  A    between atoms: _33  and  _34
REMARK   12  A    between atoms: _33  and  _36
REMARK   13  A    between atoms: _36  and  _37
REMARK   14  A    between atoms: _39  and  _41
REMARK   15  A    between atoms: _41  and  _42
REMARK   16  A    between atoms: _41  and  _44
REMARK   17  A    between atoms: _44  and  _45
REMARK   18  A    between atoms: _50  and  _52
REMARK   19  A    between atoms: _52  and  _53
REMARK   20  A    between atoms: _52  and  _55
REMARK   21  A    between atoms: _55  and  _56
REMARK   22  A    between atoms: _61  and  _63
REMARK   23  A    between atoms: _63  and  _64
REMARK   24  A    between atoms: _67  and  _69
REMARK   25  A    between atoms: _69  and  _70
REMARK   26  A    between atoms: _69  and  _72
REMARK   27  A    between atoms: _72  and  _73
REMARK   28  A    between atoms: _78  and  _80
REMARK   29  A    between atoms: _80  and  _81
REMARK   30  A    between atoms: _80  and  _83
REMARK   31  A    between atoms: _83  and  _84
REMARK   32  A    between atoms: _87  and  _89
REMARK   33  A    between atoms: _89  and  _90
REMARK   34  A    between atoms: _89  and  _92
REMARK   35  A    between atoms: _92  and  _93
REMARK   36  A    between atoms: _93  and  _94
REMARK   37  A    between atoms: _99  and  _101
REMARK   38  A    between atoms: _112  and  _115
REMARK   39  A    between atoms: _115  and  _116
REMARK   40  A    between atoms: _124  and  _125
REMARK   41  A    between atoms: _133  and  _135
REMARK   42  A    between atoms: _135  and  _136
REMARK   43  A    between atoms: _135  and  _138
REMARK   44  A    between atoms: _138  and  _139
REMARK   45  A    between atoms: _139  and  _140
REMARK   46  A    between atoms: _143  and  _145
REMARK   47  A    between atoms: _145  and  _146
REMARK   48  A    between atoms: _145  and  _148
REMARK   49  A    between atoms: _148  and  _149
REMARK   50  A    between atoms: _154  and  _156
REMARK   51  A    between atoms: _156  and  _157
REMARK   52  A    between atoms: _156  and  _159
REMARK   53  A    between atoms: _159  and  _160
REMARK   54  A    between atoms: _160  and  _161
REMARK   55  A    between atoms: _164  and  _166
REMARK   56  A    between atoms: _166  and  _167
REMARK   57  A    between atoms: _166  and  _169
REMARK   58  A    between atoms: _169  and  _170
REMARK   59  A    between atoms: _173  and  _175
REMARK   60  A    between atoms: _175  and  _176
REMARK   61  A    between atoms: _175  and  _178
REMARK   62  A    between atoms: _178  and  _179
REMARK   63  A    between atoms: _180  and  ZN_340
REMARK   64  A    between atoms: _184  and  _186
REMARK   65  A    between atoms: _186  and  _187
REMARK   66  A    between atoms: _186  and  _189
REMARK   67  A    between atoms: _189  and  _190
REMARK   68  A    between atoms: _193  and  _195
REMARK   69  A    between atoms: _195  and  _196
REMARK   70  A    between atoms: _195  and  _198
REMARK   71  A    between atoms: _201  and  _203
REMARK   72  A    between atoms: _203  and  _204
REMARK   73  A    between atoms: _203  and  _206
REMARK   74  A    between atoms: _206  and  _207
REMARK   75  A    between atoms: _212  and  _214
REMARK   76  A    between atoms: _214  and  _215
REMARK   77  A    between atoms: _214  and  _217
REMARK   78  A    between atoms: _217  and  _218
REMARK   79  A    between atoms: _224  and  _226
REMARK   80  A    between atoms: _226  and  _227
REMARK   81  A    between atoms: _226  and  _229
REMARK   82  A    between atoms: _232  and  _234
REMARK   83  A    between atoms: _234  and  _235
REMARK   84  A    between atoms: _234  and  _237
REMARK   85  A    between atoms: _237  and  _238
REMARK   86  A    between atoms: _241  and  _243
REMARK   87  A    between atoms: _243  and  _244
REMARK   88  A    between atoms: _243  and  _246
REMARK   89  A    between atoms: _249  and  _251
REMARK   90  A    between atoms: _251  and  _252
REMARK   91  A    between atoms: _251  and  _254
REMARK   92  A    between atoms: _254  and  _255
REMARK   93  A    between atoms: _257  and  _259
REMARK   94  A    between atoms: _259  and  _260
REMARK   95  A    between atoms: _259  and  _262
REMARK   96  A    between atoms: _262  and  _263
REMARK   97  A    between atoms: _266  and  _268
REMARK   98  A    between atoms: _268  and  _269
REMARK   99  A    between atoms: _268  and  _271
REMARK  100  A    between atoms: _271  and  _272
REMARK  101  A    between atoms: _275  and  _277
REMARK  102  A    between atoms: _277  and  _278
REMARK  103  A    between atoms: _277  and  _280
REMARK  104  A    between atoms: _280  and  _281
REMARK  105  A    between atoms: _285  and  _286
REMARK  106  A    between atoms: _292  and  _293
REMARK  107  A    between atoms: _298  and  _300
REMARK  108  A    between atoms: _300  and  _301
REMARK  109  A    between atoms: _300  and  _303
REMARK  110  A    between atoms: _303  and  _304
REMARK  111  A    between atoms: _307  and  _309
REMARK  112  A    between atoms: _309  and  _310
REMARK  113  A    between atoms: _309  and  _312
REMARK  114  A    between atoms: _312  and  _313
REMARK  115  A    between atoms: _316  and  _318
REMARK  116  A    between atoms: _318  and  _319
REMARK  117  A    between atoms: _318  and  _321
REMARK  118  A    between atoms: _324  and  _326
REMARK  119  A    between atoms: _326  and  _327
REMARK  120  A    between atoms: _326  and  _329
REMARK  121  A    between atoms: _329  and  _330
REMARK                            x       y       z     vdW  Elec       q    Type
REMARK                         _______ _______ _______ _____ _____    ______ ____
ROOT
ATOM      1  CA  LEU A   1      11.410   8.400  21.408  0.00  0.00    +0.133 C 
ENDROOT
BRANCH   1   2
ATOM      2  N   LEU A   1      12.061   9.389  22.308  0.00  0.00    -0.239 NA
ATOM      3  H   LEU A   1      12.604   9.075  23.138  0.00  0.00    +0.142 HD
ENDBRANCH   1   2
BRANCH   1   4
ATOM      4  C   LEU A   1      10.505   7.481  22.212  0.00  0.00    +0.224 C 
ATOM      5  O   LEU A   1      10.748   7.203  23.410  0.00  0.00    -0.287 OA
ENDBRANCH   1   4
BRANCH   1   6
ATOM      6  CB  LEU A   1      12.455   7.511  20.693  0.00  0.00    +0.025 C 
BRANCH   6   7
ATOM      7  CG  LEU A   1      13.347   8.249  19.708  0.00  0.00    +0.002 C 
ATOM      8  CD2 LEU A   1      14.092   7.146  18.872  0.00  0.00    +0.000 C 
ATOM      9  CD1 LEU A   1      12.762   9.203  18.687  0.00  0.00    +0.000 C 
ENDBRANCH   6   7
ENDBRANCH   1   6
TORSDOF 4
REMARK  Name = ../refined-set-2016/4q90/4q90_pocket.pdb
REMARK  121 active torsions:
REMARK  status: ('A' for Active; 'I' for Inactive)
REMARK    1  A    between atoms: _1  and  _3
REMARK    2  A    between atoms: _3  and  _4
REMARK    3  A    between atoms: _3  and  _6
REMARK    4  A    between atoms: _6  and  _7
REMARK    5  A    between atoms: _17  and  _19
REMARK    6  A    between atoms: _19  and  _20
REMARK    7  A    between atoms: _19  and  _22
REMARK    8  A    between atoms: _22  and  _23
REMARK    9  A    between atoms: _28  and  _29
REMARK   10  A    between atoms: _31  and  _33
REMARK   11  A    between atoms: _33  and  _34
REMARK   12  A    between atoms: _33  and  _36
REMARK   13  A    between atoms: _36  and  _37
REMARK   14  A    between atoms: _39  and  _41
REMARK   15  A    between atoms: _41  and  _42
REMARK   16  A    between atoms: _41  and  _44
REMARK   17  A    between atoms: _44  and  _45
REMARK   18  A    between atoms: _50  and  _52
REMARK   19  A    between atoms: _52  and  _53
REMARK   20  A    between atoms: _52  and  _55
REMARK   21  A    between atoms: _55  and  _56
REMARK   22  A    between atoms: _61  and  _63
REMARK   23  A    between atoms: _63  and  _64
REMARK   24  A    between atoms: _67  and  _69
REMARK   25  A    between atoms: _69  and  _70
REMARK   26  A    between atoms: _69  and  _72
REMARK   27  A    between atoms: _72  and  _73
REMARK   28  A    between atoms: _78  and  _80
REMARK   29  A    between atoms: _80  and  _81
REMARK   30  A    between atoms: _80  and  _83
REMARK   31  A    between atoms: _83  and  _84
REMARK   32  A    between atoms: _87  and  _89
REMARK   33  A    between atoms: _89  and  _90
REMARK   34  A    between atoms: _89  and  _92
REMARK   35  A    between atoms: _92  and  _93
REMARK   36  A    between atoms: _93  and  _94
REMARK   37  A    between atoms: _99  and  _101
REMARK   38  A    between atoms: _112  and  _115
REMARK   39  A    between atoms: _115  and  _116
REMARK   40  A    between atoms: _124  and  _125
REMARK   41  A    between atoms: _133  and  _135
REMARK   42  A    between atoms: _135  and  _136
REMARK   43  A    between atoms: _135  and  _138
REMARK   44  A    between atoms: _138  and  _139
REMARK   45  A    between atoms: _139  and  _140
REMARK   46  A    between atoms: _143  and  _145
REMARK   47  A    between atoms: _145  and  _146
REMARK   48  A    between atoms: _145  and  _148
REMARK   49  A    between atoms: _148  and  _149
REMARK   50  A    between atoms: _154  and  _156
REMARK   51  A    between atoms: _156  and  _157
REMARK   52  A    between atoms: _156  and  _159
REMARK   53  A    between atoms: _159  and  _160
REMARK   54  A    between atoms: _160  and  _161
REMARK   55  A    between atoms: _164  and  _166
REMARK   56  A    between atoms: _166  and  _167
REMARK   57  A    between atoms: _166  and  _169
REMARK   58  A    between atoms: _169  and  _170
REMARK   59  A    between atoms: _173  and  _175
REMARK   60  A    between atoms: _175  and  _176
REMARK   61  A    between atoms: _175  and  _178
REMARK   62  A    between atoms: _178  and  _179
REMARK   63  A    between atoms: _180  and  ZN_340
REMARK   64  A    between atoms: _184  and  _186
REMARK   65  A    between atoms: _186  and  _187
REMARK   66  A    between atoms: _186  and  _189
REMARK   67  A    between atoms: _189  and  _190
REMARK   68  A    between atoms: _193  and  _195
REMARK   69  A    between atoms: _195  and  _196
REMARK   70  A    between atoms: _195  and  _198
REMARK   71  A    between atoms: _201  and  _203
REMARK   72  A    between atoms: _203  and  _204
REMARK   73  A    between atoms: _203  and  _206
REMARK   74  A    between atoms: _206  and  _207
REMARK   75  A    between atoms: _212  and  _214
REMARK   76  A    between atoms: _214  and  _215
REMARK   77  A    between atoms: _214  and  _217
REMARK   78  A    between atoms: _217  and  _218
REMARK   79  A    between atoms: _224  and  _226
REMARK   80  A    between atoms: _226  and  _227
REMARK   81  A    between atoms: _226  and  _229
REMARK   82  A    between atoms: _232  and  _234
REMARK   83  A    between atoms: _234  and  _235
REMARK   84  A    between atoms: _234  and  _237
REMARK   85  A    between atoms: _237  and  _238
REMARK   86  A    between atoms: _241  and  _243
REMARK   87  A    between atoms: _243  and  _244
REMARK   88  A    between atoms: _243  and  _246
REMARK   89  A    between atoms: _249  and  _251
REMARK   90  A    between atoms: _251  and  _252
REMARK   91  A    between atoms: _251  and  _254
REMARK   92  A    between atoms: _254  and  _255
REMARK   93  A    between atoms: _257  and  _259
REMARK   94  A    between atoms: _259  and  _260
REMARK   95  A    between atoms: _259  and  _262
REMARK   96  A    between atoms: _262  and  _263
REMARK   97  A    between atoms: _266  and  _268
REMARK   98  A    between atoms: _268  and  _269
REMARK   99  A    between atoms: _268  and  _271
REMARK  100  A    between atoms: _271  and  _272
REMARK  101  A    between atoms: _275  and  _277
REMARK  102  A    between atoms: _277  and  _278
REMARK  103  A    between atoms: _277  and  _280
REMARK  104  A    between atoms: _280  and  _281
REMARK  105  A    between atoms: _285  and  _286
REMARK  106  A    between atoms: _292  and  _293
REMARK  107  A    between atoms: _298  and  _300
REMARK  108  A    between atoms: _300  and  _301
REMARK  109  A    between atoms: _300  and  _303
REMARK  110  A    between atoms: _303  and  _304
REMARK  111  A    between atoms: _307  and  _309
REMARK  112  A    between atoms: _309  and  _310
REMARK  113  A    between atoms: _309  and  _312
REMARK  114  A    between atoms: _312  and  _313
REMARK  115  A    between atoms: _316  and  _318
REMARK  116  A    between atoms: _318  and  _319
REMARK  117  A    between atoms: _318  and  _321
REMARK  118  A    between atoms: _324  and  _326
REMARK  119  A    between atoms: _326  and  _327
REMARK  120  A    between atoms: _326  and  _329
REMARK  121  A    between atoms: _329  and  _330
REMARK                            x       y       z     vdW  Elec       q    Type
REMARK                         _______ _______ _______ _____ _____    ______ ____
ROOT
ATOM      1  CA  VAL A   1       9.059   2.559  20.182  0.00  0.00    +0.133 C 
ENDROOT
BRANCH   1   2
ATOM      2  CB  VAL A   1      10.421   1.922  19.847  0.00  0.00    +0.023 C 
ATOM      3  CG2 VAL A   1      11.395   3.007  19.367  0.00  0.00    +0.002 C 
ATOM      4  CG1 VAL A   1      10.281   0.948  18.681  0.00  0.00    +0.002 C 
ENDBRANCH   1   2
BRANCH   1   5
ATOM      5  N   VAL A   1       9.074   3.596  21.224  0.00  0.00    -0.239 NA
ATOM      6  H   VAL A   1       9.433   3.392  22.178  0.00  0.00    +0.142 HD
ENDBRANCH   1   5
BRANCH   1   7
ATOM      7  C   VAL A   1       8.077   1.500  20.622  0.00  0.00    +0.224 C 
ATOM      8  O   VAL A   1       8.200   0.945  21.732  0.00  0.00    -0.287 OA
ENDBRANCH   1   7
TORSDOF 3
REMARK  Name = ../refined-set-2016/4q90/4q90_pocket.pdb
REMARK  121 active torsions:
REMARK  status: ('A' for Active; 'I' for Inactive)
REMARK    1  A    between atoms: _1  and  _3
REMARK    2  A    between atoms: _3  and  _4
REMARK    3  A    between atoms: _3  and  _6
REMARK    4  A    between atoms: _6  and  _7
REMARK    5  A    between atoms: _17  and  _19
REMARK    6  A    between atoms: _19  and  _20
REMARK    7  A    between atoms: _19  and  _22
REMARK    8  A    between atoms: _22  and  _23
REMARK    9  A    between atoms: _28  and  _29
REMARK   10  A    between atoms: _31  and  _33
REMARK   11  A    between atoms: _33  and  _34
REMARK   12  A    between atoms: _33  and  _36
REMARK   13  A    between atoms: _36  and  _37
REMARK   14  A    between atoms: _39  and  _41
REMARK   15  A    between atoms: _41  and  _42
REMARK   16  A    between atoms: _41  and  _44
REMARK   17  A    between atoms: _44  and  _45
REMARK   18  A    between atoms: _50  and  _52
REMARK   19  A    between atoms: _52  and  _53
REMARK   20  A    between atoms: _52  and  _55
REMARK   21  A    between atoms: _55  and  _56
REMARK   22  A    between atoms: _61  and  _63
REMARK   23  A    between atoms: _63  and  _64
REMARK   24  A    between atoms: _67  and  _69
REMARK   25  A    between atoms: _69  and  _70
REMARK   26  A    between atoms: _69  and  _72
REMARK   27  A    between atoms: _72  and  _73
REMARK   28  A    between atoms: _78  and  _80
REMARK   29  A    between atoms: _80  and  _81
REMARK   30  A    between atoms: _80  and  _83
REMARK   31  A    between atoms: _83  and  _84
REMARK   32  A    between atoms: _87  and  _89
REMARK   33  A    between atoms: _89  and  _90
REMARK   34  A    between atoms: _89  and  _92
REMARK   35  A    between atoms: _92  and  _93
REMARK   36  A    between atoms: _93  and  _94
REMARK   37  A    between atoms: _99  and  _101
REMARK   38  A    between atoms: _112  and  _115
REMARK   39  A    between atoms: _115  and  _116
REMARK   40  A    between atoms: _124  and  _125
REMARK   41  A    between atoms: _133  and  _135
REMARK   42  A    between atoms: _135  and  _136
REMARK   43  A    between atoms: _135  and  _138
REMARK   44  A    between atoms: _138  and  _139
REMARK   45  A    between atoms: _139  and  _140
REMARK   46  A    between atoms: _143  and  _145
REMARK   47  A    between atoms: _145  and  _146
REMARK   48  A    between atoms: _145  and  _148
REMARK   49  A    between atoms: _148  and  _149
REMARK   50  A    between atoms: _154  and  _156
REMARK   51  A    between atoms: _156  and  _157
REMARK   52  A    between atoms: _156  and  _159
REMARK   53  A    between atoms: _159  and  _160
REMARK   54  A    between atoms: _160  and  _161
REMARK   55  A    between atoms: _164  and  _166
REMARK   56  A    between atoms: _166  and  _167
REMARK   57  A    between atoms: _166  and  _169
REMARK   58  A    between atoms: _169  and  _170
REMARK   59  A    between atoms: _173  and  _175
REMARK   60  A    between atoms: _175  and  _176
REMARK   61  A    between atoms: _175  and  _178
REMARK   62  A    between atoms: _178  and  _179
REMARK   63  A    between atoms: _180  and  ZN_340
REMARK   64  A    between atoms: _184  and  _186
REMARK   65  A    between atoms: _186  and  _187
REMARK   66  A    between atoms: _186  and  _189
REMARK   67  A    between atoms: _189  and  _190
REMARK   68  A    between atoms: _193  and  _195
REMARK   69  A    between atoms: _195  and  _196
REMARK   70  A    between atoms: _195  and  _198
REMARK   71  A    between atoms: _201  and  _203
REMARK   72  A    between atoms: _203  and  _204
REMARK   73  A    between atoms: _203  and  _206
REMARK   74  A    between atoms: _206  and  _207
REMARK   75  A    between atoms: _212  and  _214
REMARK   76  A    between atoms: _214  and  _215
REMARK   77  A    between atoms: _214  and  _217
REMARK   78  A    between atoms: _217  and  _218
REMARK   79  A    between atoms: _224  and  _226
REMARK   80  A    between atoms: _226  and  _227
REMARK   81  A    between atoms: _226  and  _229
REMARK   82  A    between atoms: _232  and  _234
REMARK   83  A    between atoms: _234  and  _235
REMARK   84  A    between atoms: _234  and  _237
REMARK   85  A    between atoms: _237  and  _238
REMARK   86  A    between atoms: _241  and  _243
REMARK   87  A    between atoms: _243  and  _244
REMARK   88  A    between atoms: _243  and  _246
REMARK   89  A    between atoms: _249  and  _251
REMARK   90  A    between atoms: _251  and  _252
REMARK   91  A    between atoms: _251  and  _254
REMARK   92  A    between atoms: _254  and  _255
REMARK   93  A    between atoms: _257  and  _259
REMARK   94  A    between atoms: _259  and  _260
REMARK   95  A    between atoms: _259  and  _262
REMARK   96  A    between atoms: _262  and  _263
REMARK   97  A    between atoms: _266  and  _268
REMARK   98  A    between atoms: _268  and  _269
REMARK   99  A    between atoms: _268  and  _271
REMARK  100  A    between atoms: _271  and  _272
REMARK  101  A    between atoms: _275  and  _277
REMARK  102  A    between atoms: _277  and  _278
REMARK  103  A    between atoms: _277  and  _280
REMARK  104  A    between atoms: _280  and  _281
REMARK  105  A    between atoms: _285  and  _286
REMARK  106  A    between atoms: _292  and  _293
REMARK  107  A    between atoms: _298  and  _300
REMARK  108  A    between atoms: _300  and  _301
REMARK  109  A    between atoms: _300  and  _303
REMARK  110  A    between atoms: _303  and  _304
REMARK  111  A    between atoms: _307  and  _309
REMARK  112  A    between atoms: _309  and  _310
REMARK  113  A    between atoms: _309  and  _312
REMARK  114  A    between atoms: _312  and  _313
REMARK  115  A    between atoms: _316  and  _318
REMARK  116  A    between atoms: _318  and  _319
REMARK  117  A    between atoms: _318  and  _321
REMARK  118  A    between atoms: _324  and  _326
REMARK  119  A    between atoms: _326  and  _327
REMARK  120  A    between atoms: _326  and  _329
REMARK  121  A    between atoms: _329  and  _330
REMARK                            x       y       z     vdW  Elec       q    Type
REMARK                         _______ _______ _______ _____ _____    ______ ____
ROOT
ATOM      1  C   THR A   4      22.112   0.998  16.402  0.00  0.00    +0.246 C 
ATOM      2  O   THR A   4      21.580   1.975  16.958  0.00  0.00    -0.273 OA
ATOM      3  N   PRO A   5      23.404   1.012  16.029  0.00  0.00    -0.272 N 
ATOM      4  CA  PRO A   5      24.137   2.253  16.095  0.00  0.00    +0.152 C 
ATOM      5  CB  PRO A   5      25.387   1.905  15.233  0.00  0.00    +0.031 C 
ATOM      6  CG  PRO A   5      25.589   0.419  15.513  0.00  0.00    +0.024 C 
ATOM      7  CD  PRO A   5      24.191  -0.133  15.456  0.00  0.00    +0.094 C 
ENDROOT
BRANCH   4   8
ATOM      8  C   PRO A   5      23.308   3.411  15.510  0.00  0.00    +0.244 C 
ATOM      9  N   PRO A   6      23.306   4.553  16.156  0.00  0.00    -0.272 N 
ATOM     10  CA  PRO A   6      24.199   4.997  17.271  0.00  0.00    +0.152 C 
ATOM     11  CB  PRO A   6      24.146   6.507  17.161  0.00  0.00    +0.031 C 
ATOM     12  CG  PRO A   6      22.856   6.815  16.520  0.00  0.00    +0.024 C 
ATOM     13  CD  PRO A   6      22.502   5.669  15.585  0.00  0.00    +0.094 C 
ATOM     14  O   PRO A   5      22.686   3.301  14.368  0.00  0.00    -0.273 OA
BRANCH  10  15
ATOM     15  C   PRO A   6      23.811   4.588  18.700  0.00  0.00    +0.241 C 
ATOM     16  O   PRO A   6      24.405   5.063  19.683  0.00  0.00    -0.273 OA
ATOM     17  N   LEU A   7      22.805   3.690  18.791  0.00  0.00    -0.297 N 
ATOM     18  H   LEU A   7      22.247   3.442  17.949  0.00  0.00    +0.150 HD
BRANCH  17  19
ATOM     19  CA  LEU A   7      22.501   3.058  20.105  0.00  0.00    +0.149 C 
BRANCH  19  20
ATOM     20  C   LEU A   7      22.093   4.071  21.194  0.00  0.00    +0.241 C 
ATOM     21  O   LEU A   7      22.211   3.796  22.382  0.00  0.00    -0.273 OA
ATOM     22  N   LEU A   8      21.463   5.184  20.720  0.00  0.00    -0.298 N 
ATOM     23  H   LEU A   8      21.191   5.248  19.718  0.00  0.00    +0.150 HD
BRANCH  22  24
ATOM     24  CA  LEU A   8      21.170   6.305  21.654  0.00  0.00    +0.137 C 
BRANCH  24  25
ATOM     25  C   LEU A   8      20.139   5.898  22.713  0.00  0.00    +0.227 C 
ATOM     26  O   LEU A   8      19.092   5.248  22.374  0.00  0.00    -0.286 OA
ENDBRANCH  24  25
BRANCH  24  27
ATOM     27  CB  LEU A   8      20.637   7.490  20.795  0.00  0.00    +0.028 C 
BRANCH  27  28
ATOM     28  CG  LEU A   8      21.730   7.941  19.848  0.00  0.00    +0.002 C 
ATOM     29  CD2 LEU A   8      22.876   8.558  20.585  0.00  0.00    +0.000 C 
ATOM     30  CD1 LEU A   8      21.139   9.045  18.987  0.00  0.00    +0.000 C 
ENDBRANCH  27  28
ENDBRANCH  24  27
ENDBRANCH  22  24
ENDBRANCH  19  20
BRANCH  19  31
ATOM     31  CB  LEU A   7      23.651   2.140  20.633  0.00  0.00    +0.029 C 
BRANCH  31  32
ATOM     32  CG  LEU A   7      23.954   1.062  19.627  0.00  0.00    +0.002 C 
ATOM     33  CD2 LEU A   7      25.306   0.372  20.087  0.00  0.00    +0.000 C 
ATOM     34  CD1 LEU A   7      22.904  -0.058  19.575  0.00  0.00    +0.000 C 
ENDBRANCH  31  32
ENDBRANCH  19  31
ENDBRANCH  17  19
ENDBRANCH  10  15
ENDBRANCH   4   8
BRANCH   1  35
ATOM     35  CA  THR A   4      21.365  -0.306  16.124  0.00  0.00    +0.176 C 
BRANCH  35  38
ATOM     36  C   THR A   3      20.032  -1.446  17.838  0.00  0.00    +0.243 C 
ATOM     37  O   THR A   3      20.649  -2.497  17.668  0.00  0.00    -0.273 OA
ATOM     38  N   THR A   4      20.237  -0.349  17.062  0.00  0.00    -0.295 N 
ATOM     39  H   THR A   4      19.592   0.463  17.133  0.00  0.00    +0.150 HD
BRANCH  36  40
ATOM     40  CA  THR A   3      19.057  -1.329  18.993  0.00  0.00    +0.176 C 
BRANCH  40  43
ATOM     41  C   LEU A   2      18.654   0.926  19.809  0.00  0.00    +0.241 C 
ATOM     42  O   LEU A   2      19.678   0.756  20.549  0.00  0.00    -0.273 OA
ATOM     43  N   THR A   3      18.314  -0.034  18.972  0.00  0.00    -0.295 N 
ATOM     44  H   THR A   3      17.533   0.110  18.301  0.00  0.00    +0.150 HD
BRANCH  41  45
ATOM     45  CA  LEU A   2      17.904   2.261  19.734  0.00  0.00    +0.149 C 
BRANCH  45  48
ATOM     46  C   SER A   1      17.404   2.134  22.180  0.00  0.00    +0.241 C 
ATOM     47  O   SER A   1      16.644   1.141  21.987  0.00  0.00    -0.274 OA
ATOM     48  N   LEU A   2      17.979   2.796  21.170  0.00  0.00    -0.297 N 
ATOM     49  H   LEU A   2      18.484   3.685  21.361  0.00  0.00    +0.150 HD
BRANCH  46  50
ATOM     50  CA  SER A   1      17.831   2.601  23.581  0.00  0.00    +0.174 C 
BRANCH  50  51
ATOM     51  N   SER A   1      17.063   1.941  24.611  0.00  0.00    -0.236 NA
ATOM     52  H   SER A   1      16.846   0.927  24.529  0.00  0.00    +0.142 HD
ENDBRANCH  50  51
BRANCH  50  53
ATOM     53  CB  SER A   1      19.325   2.175  23.697  0.00  0.00    +0.163 C 
BRANCH  53  54
ATOM     54  OG  SER A   1      19.585   0.776  23.281  0.00  0.00    -0.380 OA
ATOM     55  H   SER A   1      19.319   0.660  22.334  0.00  0.00    +0.211 HD
ENDBRANCH  53  54
ENDBRANCH  50  53
ENDBRANCH  46  50
ENDBRANCH  45  48
BRANCH  45  56
ATOM     56  CB  LEU A   2      18.716   3.122  18.798  0.00  0.00    +0.029 C 
BRANCH  56  57
ATOM     57  CG  LEU A   2      18.298   4.598  18.725  0.00  0.00    +0.002 C 
ATOM     58  CD2 LEU A   2      16.852   4.765  18.482  0.00  0.00    +0.000 C 
ATOM     59  CD1 LEU A   2      19.172   5.388  17.630  0.00  0.00    +0.000 C 
ENDBRANCH  56  57
ENDBRANCH  45  56
ENDBRANCH  41  45
ENDBRANCH  40  43
BRANCH  40  60
ATOM     60  CB  THR A   3      18.066  -2.490  18.901  0.00  0.00    +0.137 C 
ATOM     61  CG2 THR A   3      17.052  -2.422  20.040  0.00  0.00    +0.034 C 
BRANCH  60  62
ATOM     62  OG1 THR A   3      17.370  -2.410  17.651  0.00  0.00    -0.382 OA
ATOM     63  HG1 THR A   3      16.726  -3.159  17.585  0.00  0.00    +0.210 HD
ENDBRANCH  60  62
ENDBRANCH  40  60
ENDBRANCH  36  40
ENDBRANCH  35  38
BRANCH  35  64
ATOM     64  CB  THR A   4      20.916  -0.146  14.668  0.00  0.00    +0.137 C 
ATOM     65  CG2 THR A   4      20.648  -1.512  14.085  0.00  0.00    +0.034 C 
BRANCH  64  66
ATOM     66  OG1 THR A   4      19.756   0.629  14.623  0.00  0.00    -0.382 OA
ATOM     67  HG1 THR A   4      19.042   0.182  15.143  0.00  0.00    +0.210 HD
ENDBRANCH  64  66
ENDBRANCH  35  64
ENDBRANCH   1  35
TORSDOF 26
REMARK  Name = ../refined-set-2016/4q90/4q90_pocket.pdb
REMARK  121 active torsions:
REMARK  status: ('A' for Active; 'I' for Inactive)
REMARK    1  A    between atoms: _1  and  _3
REMARK    2  A    between atoms: _3  and  _4
REMARK    3  A    between atoms: _3  and  _6
REMARK    4  A    between atoms: _6  and  _7
REMARK    5  A    between atoms: _17  and  _19
REMARK    6  A    between atoms: _19  and  _20
REMARK    7  A    between atoms: _19  and  _22
REMARK    8  A    between atoms: _22  and  _23
REMARK    9  A    between atoms: _28  and  _29
REMARK   10  A    between atoms: _31  and  _33
REMARK   11  A    between atoms: _33  and  _34
REMARK   12  A    between atoms: _33  and  _36
REMARK   13  A    between atoms: _36  and  _37
REMARK   14  A    between atoms: _39  and  _41
REMARK   15  A    between atoms: _41  and  _42
REMARK   16  A    between atoms: _41  and  _44
REMARK   17  A    between atoms: _44  and  _45
REMARK   18  A    between atoms: _50  and  _52
REMARK   19  A    between atoms: _52  and  _53
REMARK   20  A    between atoms: _52  and  _55
REMARK   21  A    between atoms: _55  and  _56
REMARK   22  A    between atoms: _61  and  _63
REMARK   23  A    between atoms: _63  and  _64
REMARK   24  A    between atoms: _67  and  _69
REMARK   25  A    between atoms: _69  and  _70
REMARK   26  A    between atoms: _69  and  _72
REMARK   27  A    between atoms: _72  and  _73
REMARK   28  A    between atoms: _78  and  _80
REMARK   29  A    between atoms: _80  and  _81
REMARK   30  A    between atoms: _80  and  _83
REMARK   31  A    between atoms: _83  and  _84
REMARK   32  A    between atoms: _87  and  _89
REMARK   33  A    between atoms: _89  and  _90
REMARK   34  A    between atoms: _89  and  _92
REMARK   35  A    between atoms: _92  and  _93
REMARK   36  A    between atoms: _93  and  _94
REMARK   37  A    between atoms: _99  and  _101
REMARK   38  A    between atoms: _112  and  _115
REMARK   39  A    between atoms: _115  and  _116
REMARK   40  A    between atoms: _124  and  _125
REMARK   41  A    between atoms: _133  and  _135
REMARK   42  A    between atoms: _135  and  _136
REMARK   43  A    between atoms: _135  and  _138
REMARK   44  A    between atoms: _138  and  _139
REMARK   45  A    between atoms: _139  and  _140
REMARK   46  A    between atoms: _143  and  _145
REMARK   47  A    between atoms: _145  and  _146
REMARK   48  A    between atoms: _145  and  _148
REMARK   49  A    between atoms: _148  and  _149
REMARK   50  A    between atoms: _154  and  _156
REMARK   51  A    between atoms: _156  and  _157
REMARK   52  A    between atoms: _156  and  _159
REMARK   53  A    between atoms: _159  and  _160
REMARK   54  A    between atoms: _160  and  _161
REMARK   55  A    between atoms: _164  and  _166
REMARK   56  A    between atoms: _166  and  _167
REMARK   57  A    between atoms: _166  and  _169
REMARK   58  A    between atoms: _169  and  _170
REMARK   59  A    between atoms: _173  and  _175
REMARK   60  A    between atoms: _175  and  _176
REMARK   61  A    between atoms: _175  and  _178
REMARK   62  A    between atoms: _178  and  _179
REMARK   63  A    between atoms: _180  and  ZN_340
REMARK   64  A    between atoms: _184  and  _186
REMARK   65  A    between atoms: _186  and  _187
REMARK   66  A    between atoms: _186  and  _189
REMARK   67  A    between atoms: _189  and  _190
REMARK   68  A    between atoms: _193  and  _195
REMARK   69  A    between atoms: _195  and  _196
REMARK   70  A    between atoms: _195  and  _198
REMARK   71  A    between atoms: _201  and  _203
REMARK   72  A    between atoms: _203  and  _204
REMARK   73  A    between atoms: _203  and  _206
REMARK   74  A    between atoms: _206  and  _207
REMARK   75  A    between atoms: _212  and  _214
REMARK   76  A    between atoms: _214  and  _215
REMARK   77  A    between atoms: _214  and  _217
REMARK   78  A    between atoms: _217  and  _218
REMARK   79  A    between atoms: _224  and  _226
REMARK   80  A    between atoms: _226  and  _227
REMARK   81  A    between atoms: _226  and  _229
REMARK   82  A    between atoms: _232  and  _234
REMARK   83  A    between atoms: _234  and  _235
REMARK   84  A    between atoms: _234  and  _237
REMARK   85  A    between atoms: _237  and  _238
REMARK   86  A    between atoms: _241  and  _243
REMARK   87  A    between atoms: _243  and  _244
REMARK   88  A    between atoms: _243  and  _246
REMARK   89  A    between atoms: _249  and  _251
REMARK   90  A    between atoms: _251  and  _252
REMARK   91  A    between atoms: _251  and  _254
REMARK   92  A    between atoms: _254  and  _255
REMARK   93  A    between atoms: _257  and  _259
REMARK   94  A    between atoms: _259  and  _260
REMARK   95  A    between atoms: _259  and  _262
REMARK   96  A    between atoms: _262  and  _263
REMARK   97  A    between atoms: _266  and  _268
REMARK   98  A    between atoms: _268  and  _269
REMARK   99  A    between atoms: _268  and  _271
REMARK  100  A    between atoms: _271  and  _272
REMARK  101  A    between atoms: _275  and  _277
REMARK  102  A    between atoms: _277  and  _278
REMARK  103  A    between atoms: _277  and  _280
REMARK  104  A    between atoms: _280  and  _281
REMARK  105  A    between atoms: _285  and  _286
REMARK  106  A    between atoms: _292  and  _293
REMARK  107  A    between atoms: _298  and  _300
REMARK  108  A    between atoms: _300  and  _301
REMARK  109  A    between atoms: _300  and  _303
REMARK  110  A    between atoms: _303  and  _304
REMARK  111  A    between atoms: _307  and  _309
REMARK  112  A    between atoms: _309  and  _310
REMARK  113  A    between atoms: _309  and  _312
REMARK  114  A    between atoms: _312  and  _313
REMARK  115  A    between atoms: _316  and  _318
REMARK  116  A    between atoms: _318  and  _319
REMARK  117  A    between atoms: _318  and  _321
REMARK  118  A    between atoms: _324  and  _326
REMARK  119  A    between atoms: _326  and  _327
REMARK  120  A    between atoms: _326  and  _329
REMARK  121  A    between atoms: _329  and  _330
REMARK                            x       y       z     vdW  Elec       q    Type
REMARK                         _______ _______ _______ _____ _____    ______ ____
ROOT
ATOM      1  CA  VAL A   1      13.638   5.235  23.990  0.00  0.00    +0.133 C 
ENDROOT
BRANCH   1   2
ATOM      2  CB  VAL A   1      13.917   3.987  23.121  0.00  0.00    +0.023 C 
ATOM      3  CG2 VAL A   1      12.612   3.337  22.783  0.00  0.00    +0.002 C 
ATOM      4  CG1 VAL A   1      14.659   4.376  21.846  0.00  0.00    +0.002 C 
ENDBRANCH   1   2
BRANCH   1   5
ATOM      5  N   VAL A   1      14.897   5.987  24.325  0.00  0.00    -0.239 NA
ATOM      6  H   VAL A   1      15.757   5.471  24.600  0.00  0.00    +0.142 HD
ENDBRANCH   1   5
BRANCH   1   7
ATOM      7  C   VAL A   1      12.861   4.831  25.201  0.00  0.00    +0.224 C 
ATOM      8  O   VAL A   1      13.388   4.156  26.047  0.00  0.00    -0.287 OA
ENDBRANCH   1   7
TORSDOF 3
REMARK  Name = ../refined-set-2016/4q90/4q90_pocket.pdb
REMARK  121 active torsions:
REMARK  status: ('A' for Active; 'I' for Inactive)
REMARK    1  A    between atoms: _1  and  _3
REMARK    2  A    between atoms: _3  and  _4
REMARK    3  A    between atoms: _3  and  _6
REMARK    4  A    between atoms: _6  and  _7
REMARK    5  A    between atoms: _17  and  _19
REMARK    6  A    between atoms: _19  and  _20
REMARK    7  A    between atoms: _19  and  _22
REMARK    8  A    between atoms: _22  and  _23
REMARK    9  A    between atoms: _28  and  _29
REMARK   10  A    between atoms: _31  and  _33
REMARK   11  A    between atoms: _33  and  _34
REMARK   12  A    between atoms: _33  and  _36
REMARK   13  A    between atoms: _36  and  _37
REMARK   14  A    between atoms: _39  and  _41
REMARK   15  A    between atoms: _41  and  _42
REMARK   16  A    between atoms: _41  and  _44
REMARK   17  A    between atoms: _44  and  _45
REMARK   18  A    between atoms: _50  and  _52
REMARK   19  A    between atoms: _52  and  _53
REMARK   20  A    between atoms: _52  and  _55
REMARK   21  A    between atoms: _55  and  _56
REMARK   22  A    between atoms: _61  and  _63
REMARK   23  A    between atoms: _63  and  _64
REMARK   24  A    between atoms: _67  and  _69
REMARK   25  A    between atoms: _69  and  _70
REMARK   26  A    between atoms: _69  and  _72
REMARK   27  A    between atoms: _72  and  _73
REMARK   28  A    between atoms: _78  and  _80
REMARK   29  A    between atoms: _80  and  _81
REMARK   30  A    between atoms: _80  and  _83
REMARK   31  A    between atoms: _83  and  _84
REMARK   32  A    between atoms: _87  and  _89
REMARK   33  A    between atoms: _89  and  _90
REMARK   34  A    between atoms: _89  and  _92
REMARK   35  A    between atoms: _92  and  _93
REMARK   36  A    between atoms: _93  and  _94
REMARK   37  A    between atoms: _99  and  _101
REMARK   38  A    between atoms: _112  and  _115
REMARK   39  A    between atoms: _115  and  _116
REMARK   40  A    between atoms: _124  and  _125
REMARK   41  A    between atoms: _133  and  _135
REMARK   42  A    between atoms: _135  and  _136
REMARK   43  A    between atoms: _135  and  _138
REMARK   44  A    between atoms: _138  and  _139
REMARK   45  A    between atoms: _139  and  _140
REMARK   46  A    between atoms: _143  and  _145
REMARK   47  A    between atoms: _145  and  _146
REMARK   48  A    between atoms: _145  and  _148
REMARK   49  A    between atoms: _148  and  _149
REMARK   50  A    between atoms: _154  and  _156
REMARK   51  A    between atoms: _156  and  _157
REMARK   52  A    between atoms: _156  and  _159
REMARK   53  A    between atoms: _159  and  _160
REMARK   54  A    between atoms: _160  and  _161
REMARK   55  A    between atoms: _164  and  _166
REMARK   56  A    between atoms: _166  and  _167
REMARK   57  A    between atoms: _166  and  _169
REMARK   58  A    between atoms: _169  and  _170
REMARK   59  A    between atoms: _173  and  _175
REMARK   60  A    between atoms: _175  and  _176
REMARK   61  A    between atoms: _175  and  _178
REMARK   62  A    between atoms: _178  and  _179
REMARK   63  A    between atoms: _180  and  ZN_340
REMARK   64  A    between atoms: _184  and  _186
REMARK   65  A    between atoms: _186  and  _187
REMARK   66  A    between atoms: _186  and  _189
REMARK   67  A    between atoms: _189  and  _190
REMARK   68  A    between atoms: _193  and  _195
REMARK   69  A    between atoms: _195  and  _196
REMARK   70  A    between atoms: _195  and  _198
REMARK   71  A    between atoms: _201  and  _203
REMARK   72  A    between atoms: _203  and  _204
REMARK   73  A    between atoms: _203  and  _206
REMARK   74  A    between atoms: _206  and  _207
REMARK   75  A    between atoms: _212  and  _214
REMARK   76  A    between atoms: _214  and  _215
REMARK   77  A    between atoms: _214  and  _217
REMARK   78  A    between atoms: _217  and  _218
REMARK   79  A    between atoms: _224  and  _226
REMARK   80  A    between atoms: _226  and  _227
REMARK   81  A    between atoms: _226  and  _229
REMARK   82  A    between atoms: _232  and  _234
REMARK   83  A    between atoms: _234  and  _235
REMARK   84  A    between atoms: _234  and  _237
REMARK   85  A    between atoms: _237  and  _238
REMARK   86  A    between atoms: _241  and  _243
REMARK   87  A    between atoms: _243  and  _244
REMARK   88  A    between atoms: _243  and  _246
REMARK   89  A    between atoms: _249  and  _251
REMARK   90  A    between atoms: _251  and  _252
REMARK   91  A    between atoms: _251  and  _254
REMARK   92  A    between atoms: _254  and  _255
REMARK   93  A    between atoms: _257  and  _259
REMARK   94  A    between atoms: _259  and  _260
REMARK   95  A    between atoms: _259  and  _262
REMARK   96  A    between atoms: _262  and  _263
REMARK   97  A    between atoms: _266  and  _268
REMARK   98  A    between atoms: _268  and  _269
REMARK   99  A    between atoms: _268  and  _271
REMARK  100  A    between atoms: _271  and  _272
REMARK  101  A    between atoms: _275  and  _277
REMARK  102  A    between atoms: _277  and  _278
REMARK  103  A    between atoms: _277  and  _280
REMARK  104  A    between atoms: _280  and  _281
REMARK  105  A    between atoms: _285  and  _286
REMARK  106  A    between atoms: _292  and  _293
REMARK  107  A    between atoms: _298  and  _300
REMARK  108  A    between atoms: _300  and  _301
REMARK  109  A    between atoms: _300  and  _303
REMARK  110  A    between atoms: _303  and  _304
REMARK  111  A    between atoms: _307  and  _309
REMARK  112  A    between atoms: _309  and  _310
REMARK  113  A    between atoms: _309  and  _312
REMARK  114  A    between atoms: _312  and  _313
REMARK  115  A    between atoms: _316  and  _318
REMARK  116  A    between atoms: _318  and  _319
REMARK  117  A    between atoms: _318  and  _321
REMARK  118  A    between atoms: _324  and  _326
REMARK  119  A    between atoms: _326  and  _327
REMARK  120  A    between atoms: _326  and  _329
REMARK  121  A    between atoms: _329  and  _330
REMARK                            x       y       z     vdW  Elec       q    Type
REMARK                         _______ _______ _______ _____ _____    ______ ____
ROOT
ATOM      1  CG  TRP A   1      12.177  -0.201  24.262  0.00  0.00    -0.002 A 
ATOM      2  CD1 TRP A   1      13.373   0.370  24.452  0.00  0.00    +0.068 A 
ATOM      3  NE1 TRP A   1      14.133   0.326  23.289  0.00  0.00    -0.352 N 
ATOM      4  HE1 TRP A   1      15.110   0.669  23.187  0.00  0.00    +0.166 HD
ATOM      5  CE2 TRP A   1      13.361  -0.258  22.278  0.00  0.00    +0.056 A 
ATOM      6  CZ2 TRP A   1      13.650  -0.512  20.926  0.00  0.00    +0.017 A 
ATOM      7  CH2 TRP A   1      12.638  -1.170  20.197  0.00  0.00    +0.001 A 
ATOM      8  CZ3 TRP A   1      11.385  -1.497  20.789  0.00  0.00    +0.000 A 
ATOM      9  CE3 TRP A   1      11.125  -1.247  22.113  0.00  0.00    +0.001 A 
ATOM     10  CD2 TRP A   1      12.124  -0.620  22.884  0.00  0.00    +0.013 A 
ENDROOT
BRANCH   1  11
ATOM     11  CB  TRP A   1      11.063  -0.291  25.241  0.00  0.00    +0.053 C 
BRANCH  11  12
ATOM     12  CA  TRP A   1      10.019   0.916  25.036  0.00  0.00    +0.137 C 
BRANCH  12  13
ATOM     13  N   TRP A   1      10.498   2.101  25.753  0.00  0.00    -0.239 NA
ATOM     14  H   TRP A   1      11.107   2.009  26.591  0.00  0.00    +0.142 HD
ENDBRANCH  12  13
BRANCH  12  15
ATOM     15  C   TRP A   1       8.670   0.456  25.533  0.00  0.00    +0.224 C 
ATOM     16  O   TRP A   1       8.438   0.380  26.730  0.00  0.00    -0.287 OA
ENDBRANCH  12  15
ENDBRANCH  11  12
ENDBRANCH   1  11
TORSDOF 4
REMARK  Name = ../refined-set-2016/4q90/4q90_pocket.pdb
REMARK  121 active torsions:
REMARK  status: ('A' for Active; 'I' for Inactive)
REMARK    1  A    between atoms: _1  and  _3
REMARK    2  A    between atoms: _3  and  _4
REMARK    3  A    between atoms: _3  and  _6
REMARK    4  A    between atoms: _6  and  _7
REMARK    5  A    between atoms: _17  and  _19
REMARK    6  A    between atoms: _19  and  _20
REMARK    7  A    between atoms: _19  and  _22
REMARK    8  A    between atoms: _22  and  _23
REMARK    9  A    between atoms: _28  and  _29
REMARK   10  A    between atoms: _31  and  _33
REMARK   11  A    between atoms: _33  and  _34
REMARK   12  A    between atoms: _33  and  _36
REMARK   13  A    between atoms: _36  and  _37
REMARK   14  A    between atoms: _39  and  _41
REMARK   15  A    between atoms: _41  and  _42
REMARK   16  A    between atoms: _41  and  _44
REMARK   17  A    between atoms: _44  and  _45
REMARK   18  A    between atoms: _50  and  _52
REMARK   19  A    between atoms: _52  and  _53
REMARK   20  A    between atoms: _52  and  _55
REMARK   21  A    between atoms: _55  and  _56
REMARK   22  A    between atoms: _61  and  _63
REMARK   23  A    between atoms: _63  and  _64
REMARK   24  A    between atoms: _67  and  _69
REMARK   25  A    between atoms: _69  and  _70
REMARK   26  A    between atoms: _69  and  _72
REMARK   27  A    between atoms: _72  and  _73
REMARK   28  A    between atoms: _78  and  _80
REMARK   29  A    between atoms: _80  and  _81
REMARK   30  A    between atoms: _80  and  _83
REMARK   31  A    between atoms: _83  and  _84
REMARK   32  A    between atoms: _87  and  _89
REMARK   33  A    between atoms: _89  and  _90
REMARK   34  A    between atoms: _89  and  _92
REMARK   35  A    between atoms: _92  and  _93
REMARK   36  A    between atoms: _93  and  _94
REMARK   37  A    between atoms: _99  and  _101
REMARK   38  A    between atoms: _112  and  _115
REMARK   39  A    between atoms: _115  and  _116
REMARK   40  A    between atoms: _124  and  _125
REMARK   41  A    between atoms: _133  and  _135
REMARK   42  A    between atoms: _135  and  _136
REMARK   43  A    between atoms: _135  and  _138
REMARK   44  A    between atoms: _138  and  _139
REMARK   45  A    between atoms: _139  and  _140
REMARK   46  A    between atoms: _143  and  _145
REMARK   47  A    between atoms: _145  and  _146
REMARK   48  A    between atoms: _145  and  _148
REMARK   49  A    between atoms: _148  and  _149
REMARK   50  A    between atoms: _154  and  _156
REMARK   51  A    between atoms: _156  and  _157
REMARK   52  A    between atoms: _156  and  _159
REMARK   53  A    between atoms: _159  and  _160
REMARK   54  A    between atoms: _160  and  _161
REMARK   55  A    between atoms: _164  and  _166
REMARK   56  A    between atoms: _166  and  _167
REMARK   57  A    between atoms: _166  and  _169
REMARK   58  A    between atoms: _169  and  _170
REMARK   59  A    between atoms: _173  and  _175
REMARK   60  A    between atoms: _175  and  _176
REMARK   61  A    between atoms: _175  and  _178
REMARK   62  A    between atoms: _178  and  _179
REMARK   63  A    between atoms: _180  and  ZN_340
REMARK   64  A    between atoms: _184  and  _186
REMARK   65  A    between atoms: _186  and  _187
REMARK   66  A    between atoms: _186  and  _189
REMARK   67  A    between atoms: _189  and  _190
REMARK   68  A    between atoms: _193  and  _195
REMARK   69  A    between atoms: _195  and  _196
REMARK   70  A    between atoms: _195  and  _198
REMARK   71  A    between atoms: _201  and  _203
REMARK   72  A    between atoms: _203  and  _204
REMARK   73  A    between atoms: _203  and  _206
REMARK   74  A    between atoms: _206  and  _207
REMARK   75  A    between atoms: _212  and  _214
REMARK   76  A    between atoms: _214  and  _215
REMARK   77  A    between atoms: _214  and  _217
REMARK   78  A    between atoms: _217  and  _218
REMARK   79  A    between atoms: _224  and  _226
REMARK   80  A    between atoms: _226  and  _227
REMARK   81  A    between atoms: _226  and  _229
REMARK   82  A    between atoms: _232  and  _234
REMARK   83  A    between atoms: _234  and  _235
REMARK   84  A    between atoms: _234  and  _237
REMARK   85  A    between atoms: _237  and  _238
REMARK   86  A    between atoms: _241  and  _243
REMARK   87  A    between atoms: _243  and  _244
REMARK   88  A    between atoms: _243  and  _246
REMARK   89  A    between atoms: _249  and  _251
REMARK   90  A    between atoms: _251  and  _252
REMARK   91  A    between atoms: _251  and  _254
REMARK   92  A    between atoms: _254  and  _255
REMARK   93  A    between atoms: _257  and  _259
REMARK   94  A    between atoms: _259  and  _260
REMARK   95  A    between atoms: _259  and  _262
REMARK   96  A    between atoms: _262  and  _263
REMARK   97  A    between atoms: _266  and  _268
REMARK   98  A    between atoms: _268  and  _269
REMARK   99  A    between atoms: _268  and  _271
REMARK  100  A    between atoms: _271  and  _272
REMARK  101  A    between atoms: _275  and  _277
REMARK  102  A    between atoms: _277  and  _278
REMARK  103  A    between atoms: _277  and  _280
REMARK  104  A    between atoms: _280  and  _281
REMARK  105  A    between atoms: _285  and  _286
REMARK  106  A    between atoms: _292  and  _293
REMARK  107  A    between atoms: _298  and  _300
REMARK  108  A    between atoms: _300  and  _301
REMARK  109  A    between atoms: _300  and  _303
REMARK  110  A    between atoms: _303  and  _304
REMARK  111  A    between atoms: _307  and  _309
REMARK  112  A    between atoms: _309  and  _310
REMARK  113  A    between atoms: _309  and  _312
REMARK  114  A    between atoms: _312  and  _313
REMARK  115  A    between atoms: _316  and  _318
REMARK  116  A    between atoms: _318  and  _319
REMARK  117  A    between atoms: _318  and  _321
REMARK  118  A    between atoms: _324  and  _326
REMARK  119  A    between atoms: _326  and  _327
REMARK  120  A    between atoms: _326  and  _329
REMARK  121  A    between atoms: _329  and  _330
REMARK                            x       y       z     vdW  Elec       q    Type
REMARK                         _______ _______ _______ _____ _____    ______ ____
ROOT
ATOM      1  O   HOH     1      19.685  -4.373  15.870  0.00  0.00    +0.000 OA
ENDROOT
TORSDOF 0
REMARK  Name = ../refined-set-2016/4q90/4q90_pocket.pdb
REMARK  121 active torsions:
REMARK  status: ('A' for Active; 'I' for Inactive)
REMARK    1  A    between atoms: _1  and  _3
REMARK    2  A    between atoms: _3  and  _4
REMARK    3  A    between atoms: _3  and  _6
REMARK    4  A    between atoms: _6  and  _7
REMARK    5  A    between atoms: _17  and  _19
REMARK    6  A    between atoms: _19  and  _20
REMARK    7  A    between atoms: _19  and  _22
REMARK    8  A    between atoms: _22  and  _23
REMARK    9  A    between atoms: _28  and  _29
REMARK   10  A    between atoms: _31  and  _33
REMARK   11  A    between atoms: _33  and  _34
REMARK   12  A    between atoms: _33  and  _36
REMARK   13  A    between atoms: _36  and  _37
REMARK   14  A    between atoms: _39  and  _41
REMARK   15  A    between atoms: _41  and  _42
REMARK   16  A    between atoms: _41  and  _44
REMARK   17  A    between atoms: _44  and  _45
REMARK   18  A    between atoms: _50  and  _52
REMARK   19  A    between atoms: _52  and  _53
REMARK   20  A    between atoms: _52  and  _55
REMARK   21  A    between atoms: _55  and  _56
REMARK   22  A    between atoms: _61  and  _63
REMARK   23  A    between atoms: _63  and  _64
REMARK   24  A    between atoms: _67  and  _69
REMARK   25  A    between atoms: _69  and  _70
REMARK   26  A    between atoms: _69  and  _72
REMARK   27  A    between atoms: _72  and  _73
REMARK   28  A    between atoms: _78  and  _80
REMARK   29  A    between atoms: _80  and  _81
REMARK   30  A    between atoms: _80  and  _83
REMARK   31  A    between atoms: _83  and  _84
REMARK   32  A    between atoms: _87  and  _89
REMARK   33  A    between atoms: _89  and  _90
REMARK   34  A    between atoms: _89  and  _92
REMARK   35  A    between atoms: _92  and  _93
REMARK   36  A    between atoms: _93  and  _94
REMARK   37  A    between atoms: _99  and  _101
REMARK   38  A    between atoms: _112  and  _115
REMARK   39  A    between atoms: _115  and  _116
REMARK   40  A    between atoms: _124  and  _125
REMARK   41  A    between atoms: _133  and  _135
REMARK   42  A    between atoms: _135  and  _136
REMARK   43  A    between atoms: _135  and  _138
REMARK   44  A    between atoms: _138  and  _139
REMARK   45  A    between atoms: _139  and  _140
REMARK   46  A    between atoms: _143  and  _145
REMARK   47  A    between atoms: _145  and  _146
REMARK   48  A    between atoms: _145  and  _148
REMARK   49  A    between atoms: _148  and  _149
REMARK   50  A    between atoms: _154  and  _156
REMARK   51  A    between atoms: _156  and  _157
REMARK   52  A    between atoms: _156  and  _159
REMARK   53  A    between atoms: _159  and  _160
REMARK   54  A    between atoms: _160  and  _161
REMARK   55  A    between atoms: _164  and  _166
REMARK   56  A    between atoms: _166  and  _167
REMARK   57  A    between atoms: _166  and  _169
REMARK   58  A    between atoms: _169  and  _170
REMARK   59  A    between atoms: _173  and  _175
REMARK   60  A    between atoms: _175  and  _176
REMARK   61  A    between atoms: _175  and  _178
REMARK   62  A    between atoms: _178  and  _179
REMARK   63  A    between atoms: _180  and  ZN_340
REMARK   64  A    between atoms: _184  and  _186
REMARK   65  A    between atoms: _186  and  _187
REMARK   66  A    between atoms: _186  and  _189
REMARK   67  A    between atoms: _189  and  _190
REMARK   68  A    between atoms: _193  and  _195
REMARK   69  A    between atoms: _195  and  _196
REMARK   70  A    between atoms: _195  and  _198
REMARK   71  A    between atoms: _201  and  _203
REMARK   72  A    between atoms: _203  and  _204
REMARK   73  A    between atoms: _203  and  _206
REMARK   74  A    between atoms: _206  and  _207
REMARK   75  A    between atoms: _212  and  _214
REMARK   76  A    between atoms: _214  and  _215
REMARK   77  A    between atoms: _214  and  _217
REMARK   78  A    between atoms: _217  and  _218
REMARK   79  A    between atoms: _224  and  _226
REMARK   80  A    between atoms: _226  and  _227
REMARK   81  A    between atoms: _226  and  _229
REMARK   82  A    between atoms: _232  and  _234
REMARK   83  A    between atoms: _234  and  _235
REMARK   84  A    between atoms: _234  and  _237
REMARK   85  A    between atoms: _237  and  _238
REMARK   86  A    between atoms: _241  and  _243
REMARK   87  A    between atoms: _243  and  _244
REMARK   88  A    between atoms: _243  and  _246
REMARK   89  A    between atoms: _249  and  _251
REMARK   90  A    between atoms: _251  and  _252
REMARK   91  A    between atoms: _251  and  _254
REMARK   92  A    between atoms: _254  and  _255
REMARK   93  A    between atoms: _257  and  _259
REMARK   94  A    between atoms: _259  and  _260
REMARK   95  A    between atoms: _259  and  _262
REMARK   96  A    between atoms: _262  and  _263
REMARK   97  A    between atoms: _266  and  _268
REMARK   98  A    between atoms: _268  and  _269
REMARK   99  A    between atoms: _268  and  _271
REMARK  100  A    between atoms: _271  and  _272
REMARK  101  A    between atoms: _275  and  _277
REMARK  102  A    between atoms: _277  and  _278
REMARK  103  A    between atoms: _277  and  _280
REMARK  104  A    between atoms: _280  and  _281
REMARK  105  A    between atoms: _285  and  _286
REMARK  106  A    between atoms: _292  and  _293
REMARK  107  A    between atoms: _298  and  _300
REMARK  108  A    between atoms: _300  and  _301
REMARK  109  A    between atoms: _300  and  _303
REMARK  110  A    between atoms: _303  and  _304
REMARK  111  A    between atoms: _307  and  _309
REMARK  112  A    between atoms: _309  and  _310
REMARK  113  A    between atoms: _309  and  _312
REMARK  114  A    between atoms: _312  and  _313
REMARK  115  A    between atoms: _316  and  _318
REMARK  116  A    between atoms: _318  and  _319
REMARK  117  A    between atoms: _318  and  _321
REMARK  118  A    between atoms: _324  and  _326
REMARK  119  A    between atoms: _326  and  _327
REMARK  120  A    between atoms: _326  and  _329
REMARK  121  A    between atoms: _329  and  _330
REMARK                            x       y       z     vdW  Elec       q    Type
REMARK                         _______ _______ _______ _____ _____    ______ ____
ROOT
ATOM      1  O   HOH     1      18.431  -3.247  11.516  0.00  0.00    +0.000 OA
ENDROOT
TORSDOF 0
REMARK  Name = ../refined-set-2016/4q90/4q90_pocket.pdb
REMARK  121 active torsions:
REMARK  status: ('A' for Active; 'I' for Inactive)
REMARK    1  A    between atoms: _1  and  _3
REMARK    2  A    between atoms: _3  and  _4
REMARK    3  A    between atoms: _3  and  _6
REMARK    4  A    between atoms: _6  and  _7
REMARK    5  A    between atoms: _17  and  _19
REMARK    6  A    between atoms: _19  and  _20
REMARK    7  A    between atoms: _19  and  _22
REMARK    8  A    between atoms: _22  and  _23
REMARK    9  A    between atoms: _28  and  _29
REMARK   10  A    between atoms: _31  and  _33
REMARK   11  A    between atoms: _33  and  _34
REMARK   12  A    between atoms: _33  and  _36
REMARK   13  A    between atoms: _36  and  _37
REMARK   14  A    between atoms: _39  and  _41
REMARK   15  A    between atoms: _41  and  _42
REMARK   16  A    between atoms: _41  and  _44
REMARK   17  A    between atoms: _44  and  _45
REMARK   18  A    between atoms: _50  and  _52
REMARK   19  A    between atoms: _52  and  _53
REMARK   20  A    between atoms: _52  and  _55
REMARK   21  A    between atoms: _55  and  _56
REMARK   22  A    between atoms: _61  and  _63
REMARK   23  A    between atoms: _63  and  _64
REMARK   24  A    between atoms: _67  and  _69
REMARK   25  A    between atoms: _69  and  _70
REMARK   26  A    between atoms: _69  and  _72
REMARK   27  A    between atoms: _72  and  _73
REMARK   28  A    between atoms: _78  and  _80
REMARK   29  A    between atoms: _80  and  _81
REMARK   30  A    between atoms: _80  and  _83
REMARK   31  A    between atoms: _83  and  _84
REMARK   32  A    between atoms: _87  and  _89
REMARK   33  A    between atoms: _89  and  _90
REMARK   34  A    between atoms: _89  and  _92
REMARK   35  A    between atoms: _92  and  _93
REMARK   36  A    between atoms: _93  and  _94
REMARK   37  A    between atoms: _99  and  _101
REMARK   38  A    between atoms: _112  and  _115
REMARK   39  A    between atoms: _115  and  _116
REMARK   40  A    between atoms: _124  and  _125
REMARK   41  A    between atoms: _133  and  _135
REMARK   42  A    between atoms: _135  and  _136
REMARK   43  A    between atoms: _135  and  _138
REMARK   44  A    between atoms: _138  and  _139
REMARK   45  A    between atoms: _139  and  _140
REMARK   46  A    between atoms: _143  and  _145
REMARK   47  A    between atoms: _145  and  _146
REMARK   48  A    between atoms: _145  and  _148
REMARK   49  A    between atoms: _148  and  _149
REMARK   50  A    between atoms: _154  and  _156
REMARK   51  A    between atoms: _156  and  _157
REMARK   52  A    between atoms: _156  and  _159
REMARK   53  A    between atoms: _159  and  _160
REMARK   54  A    between atoms: _160  and  _161
REMARK   55  A    between atoms: _164  and  _166
REMARK   56  A    between atoms: _166  and  _167
REMARK   57  A    between atoms: _166  and  _169
REMARK   58  A    between atoms: _169  and  _170
REMARK   59  A    between atoms: _173  and  _175
REMARK   60  A    between atoms: _175  and  _176
REMARK   61  A    between atoms: _175  and  _178
REMARK   62  A    between atoms: _178  and  _179
REMARK   63  A    between atoms: _180  and  ZN_340
REMARK   64  A    between atoms: _184  and  _186
REMARK   65  A    between atoms: _186  and  _187
REMARK   66  A    between atoms: _186  and  _189
REMARK   67  A    between atoms: _189  and  _190
REMARK   68  A    between atoms: _193  and  _195
REMARK   69  A    between atoms: _195  and  _196
REMARK   70  A    between atoms: _195  and  _198
REMARK   71  A    between atoms: _201  and  _203
REMARK   72  A    between atoms: _203  and  _204
REMARK   73  A    between atoms: _203  and  _206
REMARK   74  A    between atoms: _206  and  _207
REMARK   75  A    between atoms: _212  and  _214
REMARK   76  A    between atoms: _214  and  _215
REMARK   77  A    between atoms: _214  and  _217
REMARK   78  A    between atoms: _217  and  _218
REMARK   79  A    between atoms: _224  and  _226
REMARK   80  A    between atoms: _226  and  _227
REMARK   81  A    between atoms: _226  and  _229
REMARK   82  A    between atoms: _232  and  _234
REMARK   83  A    between atoms: _234  and  _235
REMARK   84  A    between atoms: _234  and  _237
REMARK   85  A    between atoms: _237  and  _238
REMARK   86  A    between atoms: _241  and  _243
REMARK   87  A    between atoms: _243  and  _244
REMARK   88  A    between atoms: _243  and  _246
REMARK   89  A    between atoms: _249  and  _251
REMARK   90  A    between atoms: _251  and  _252
REMARK   91  A    between atoms: _251  and  _254
REMARK   92  A    between atoms: _254  and  _255
REMARK   93  A    between atoms: _257  and  _259
REMARK   94  A    between atoms: _259  and  _260
REMARK   95  A    between atoms: _259  and  _262
REMARK   96  A    between atoms: _262  and  _263
REMARK   97  A    between atoms: _266  and  _268
REMARK   98  A    between atoms: _268  and  _269
REMARK   99  A    between atoms: _268  and  _271
REMARK  100  A    between atoms: _271  and  _272
REMARK  101  A    between atoms: _275  and  _277
REMARK  102  A    between atoms: _277  and  _278
REMARK  103  A    between atoms: _277  and  _280
REMARK  104  A    between atoms: _280  and  _281
REMARK  105  A    between atoms: _285  and  _286
REMARK  106  A    between atoms: _292  and  _293
REMARK  107  A    between atoms: _298  and  _300
REMARK  108  A    between atoms: _300  and  _301
REMARK  109  A    between atoms: _300  and  _303
REMARK  110  A    between atoms: _303  and  _304
REMARK  111  A    between atoms: _307  and  _309
REMARK  112  A    between atoms: _309  and  _310
REMARK  113  A    between atoms: _309  and  _312
REMARK  114  A    between atoms: _312  and  _313
REMARK  115  A    between atoms: _316  and  _318
REMARK  116  A    between atoms: _318  and  _319
REMARK  117  A    between atoms: _318  and  _321
REMARK  118  A    between atoms: _324  and  _326
REMARK  119  A    between atoms: _326  and  _327
REMARK  120  A    between atoms: _326  and  _329
REMARK  121  A    between atoms: _329  and  _330
REMARK                            x       y       z     vdW  Elec       q    Type
REMARK                         _______ _______ _______ _____ _____    ______ ____
ROOT
ATOM      1  O   HOH     1      20.060   3.282  13.809  0.00  0.00    +0.000 OA
ENDROOT
TORSDOF 0
REMARK  Name = ../refined-set-2016/4q90/4q90_pocket.pdb
REMARK  121 active torsions:
REMARK  status: ('A' for Active; 'I' for Inactive)
REMARK    1  A    between atoms: _1  and  _3
REMARK    2  A    between atoms: _3  and  _4
REMARK    3  A    between atoms: _3  and  _6
REMARK    4  A    between atoms: _6  and  _7
REMARK    5  A    between atoms: _17  and  _19
REMARK    6  A    between atoms: _19  and  _20
REMARK    7  A    between atoms: _19  and  _22
REMARK    8  A    between atoms: _22  and  _23
REMARK    9  A    between atoms: _28  and  _29
REMARK   10  A    between atoms: _31  and  _33
REMARK   11  A    between atoms: _33  and  _34
REMARK   12  A    between atoms: _33  and  _36
REMARK   13  A    between atoms: _36  and  _37
REMARK   14  A    between atoms: _39  and  _41
REMARK   15  A    between atoms: _41  and  _42
REMARK   16  A    between atoms: _41  and  _44
REMARK   17  A    between atoms: _44  and  _45
REMARK   18  A    between atoms: _50  and  _52
REMARK   19  A    between atoms: _52  and  _53
REMARK   20  A    between atoms: _52  and  _55
REMARK   21  A    between atoms: _55  and  _56
REMARK   22  A    between atoms: _61  and  _63
REMARK   23  A    between atoms: _63  and  _64
REMARK   24  A    between atoms: _67  and  _69
REMARK   25  A    between atoms: _69  and  _70
REMARK   26  A    between atoms: _69  and  _72
REMARK   27  A    between atoms: _72  and  _73
REMARK   28  A    between atoms: _78  and  _80
REMARK   29  A    between atoms: _80  and  _81
REMARK   30  A    between atoms: _80  and  _83
REMARK   31  A    between atoms: _83  and  _84
REMARK   32  A    between atoms: _87  and  _89
REMARK   33  A    between atoms: _89  and  _90
REMARK   34  A    between atoms: _89  and  _92
REMARK   35  A    between atoms: _92  and  _93
REMARK   36  A    between atoms: _93  and  _94
REMARK   37  A    between atoms: _99  and  _101
REMARK   38  A    between atoms: _112  and  _115
REMARK   39  A    between atoms: _115  and  _116
REMARK   40  A    between atoms: _124  and  _125
REMARK   41  A    between atoms: _133  and  _135
REMARK   42  A    between atoms: _135  and  _136
REMARK   43  A    between atoms: _135  and  _138
REMARK   44  A    between atoms: _138  and  _139
REMARK   45  A    between atoms: _139  and  _140
REMARK   46  A    between atoms: _143  and  _145
REMARK   47  A    between atoms: _145  and  _146
REMARK   48  A    between atoms: _145  and  _148
REMARK   49  A    between atoms: _148  and  _149
REMARK   50  A    between atoms: _154  and  _156
REMARK   51  A    between atoms: _156  and  _157
REMARK   52  A    between atoms: _156  and  _159
REMARK   53  A    between atoms: _159  and  _160
REMARK   54  A    between atoms: _160  and  _161
REMARK   55  A    between atoms: _164  and  _166
REMARK   56  A    between atoms: _166  and  _167
REMARK   57  A    between atoms: _166  and  _169
REMARK   58  A    between atoms: _169  and  _170
REMARK   59  A    between atoms: _173  and  _175
REMARK   60  A    between atoms: _175  and  _176
REMARK   61  A    between atoms: _175  and  _178
REMARK   62  A    between atoms: _178  and  _179
REMARK   63  A    between atoms: _180  and  ZN_340
REMARK   64  A    between atoms: _184  and  _186
REMARK   65  A    between atoms: _186  and  _187
REMARK   66  A    between atoms: _186  and  _189
REMARK   67  A    between atoms: _189  and  _190
REMARK   68  A    between atoms: _193  and  _195
REMARK   69  A    between atoms: _195  and  _196
REMARK   70  A    between atoms: _195  and  _198
REMARK   71  A    between atoms: _201  and  _203
REMARK   72  A    between atoms: _203  and  _204
REMARK   73  A    between atoms: _203  and  _206
REMARK   74  A    between atoms: _206  and  _207
REMARK   75  A    between atoms: _212  and  _214
REMARK   76  A    between atoms: _214  and  _215
REMARK   77  A    between atoms: _214  and  _217
REMARK   78  A    between atoms: _217  and  _218
REMARK   79  A    between atoms: _224  and  _226
REMARK   80  A    between atoms: _226  and  _227
REMARK   81  A    between atoms: _226  and  _229
REMARK   82  A    between atoms: _232  and  _234
REMARK   83  A    between atoms: _234  and  _235
REMARK   84  A    between atoms: _234  and  _237
REMARK   85  A    between atoms: _237  and  _238
REMARK   86  A    between atoms: _241  and  _243
REMARK   87  A    between atoms: _243  and  _244
REMARK   88  A    between atoms: _243  and  _246
REMARK   89  A    between atoms: _249  and  _251
REMARK   90  A    between atoms: _251  and  _252
REMARK   91  A    between atoms: _251  and  _254
REMARK   92  A    between atoms: _254  and  _255
REMARK   93  A    between atoms: _257  and  _259
REMARK   94  A    between atoms: _259  and  _260
REMARK   95  A    between atoms: _259  and  _262
REMARK   96  A    between atoms: _262  and  _263
REMARK   97  A    between atoms: _266  and  _268
REMARK   98  A    between atoms: _268  and  _269
REMARK   99  A    between atoms: _268  and  _271
REMARK  100  A    between atoms: _271  and  _272
REMARK  101  A    between atoms: _275  and  _277
REMARK  102  A    between atoms: _277  and  _278
REMARK  103  A    between atoms: _277  and  _280
REMARK  104  A    between atoms: _280  and  _281
REMARK  105  A    between atoms: _285  and  _286
REMARK  106  A    between atoms: _292  and  _293
REMARK  107  A    between atoms: _298  and  _300
REMARK  108  A    between atoms: _300  and  _301
REMARK  109  A    between atoms: _300  and  _303
REMARK  110  A    between atoms: _303  and  _304
REMARK  111  A    between atoms: _307  and  _309
REMARK  112  A    between atoms: _309  and  _310
REMARK  113  A    between atoms: _309  and  _312
REMARK  114  A    between atoms: _312  and  _313
REMARK  115  A    between atoms: _316  and  _318
REMARK  116  A    between atoms: _318  and  _319
REMARK  117  A    between atoms: _318  and  _321
REMARK  118  A    between atoms: _324  and  _326
REMARK  119  A    between atoms: _326  and  _327
REMARK  120  A    between atoms: _326  and  _329
REMARK  121  A    between atoms: _329  and  _330
REMARK                            x       y       z     vdW  Elec       q    Type
REMARK                         _______ _______ _______ _____ _____    ______ ____
ROOT
ATOM      1  O   HOH     1      16.829  -0.807  12.145  0.00  0.00    +0.000 OA
ENDROOT
TORSDOF 0
REMARK  Name = ../refined-set-2016/4q90/4q90_pocket.pdb
REMARK  121 active torsions:
REMARK  status: ('A' for Active; 'I' for Inactive)
REMARK    1  A    between atoms: _1  and  _3
REMARK    2  A    between atoms: _3  and  _4
REMARK    3  A    between atoms: _3  and  _6
REMARK    4  A    between atoms: _6  and  _7
REMARK    5  A    between atoms: _17  and  _19
REMARK    6  A    between atoms: _19  and  _20
REMARK    7  A    between atoms: _19  and  _22
REMARK    8  A    between atoms: _22  and  _23
REMARK    9  A    between atoms: _28  and  _29
REMARK   10  A    between atoms: _31  and  _33
REMARK   11  A    between atoms: _33  and  _34
REMARK   12  A    between atoms: _33  and  _36
REMARK   13  A    between atoms: _36  and  _37
REMARK   14  A    between atoms: _39  and  _41
REMARK   15  A    between atoms: _41  and  _42
REMARK   16  A    between atoms: _41  and  _44
REMARK   17  A    between atoms: _44  and  _45
REMARK   18  A    between atoms: _50  and  _52
REMARK   19  A    between atoms: _52  and  _53
REMARK   20  A    between atoms: _52  and  _55
REMARK   21  A    between atoms: _55  and  _56
REMARK   22  A    between atoms: _61  and  _63
REMARK   23  A    between atoms: _63  and  _64
REMARK   24  A    between atoms: _67  and  _69
REMARK   25  A    between atoms: _69  and  _70
REMARK   26  A    between atoms: _69  and  _72
REMARK   27  A    between atoms: _72  and  _73
REMARK   28  A    between atoms: _78  and  _80
REMARK   29  A    between atoms: _80  and  _81
REMARK   30  A    between atoms: _80  and  _83
REMARK   31  A    between atoms: _83  and  _84
REMARK   32  A    between atoms: _87  and  _89
REMARK   33  A    between atoms: _89  and  _90
REMARK   34  A    between atoms: _89  and  _92
REMARK   35  A    between atoms: _92  and  _93
REMARK   36  A    between atoms: _93  and  _94
REMARK   37  A    between atoms: _99  and  _101
REMARK   38  A    between atoms: _112  and  _115
REMARK   39  A    between atoms: _115  and  _116
REMARK   40  A    between atoms: _124  and  _125
REMARK   41  A    between atoms: _133  and  _135
REMARK   42  A    between atoms: _135  and  _136
REMARK   43  A    between atoms: _135  and  _138
REMARK   44  A    between atoms: _138  and  _139
REMARK   45  A    between atoms: _139  and  _140
REMARK   46  A    between atoms: _143  and  _145
REMARK   47  A    between atoms: _145  and  _146
REMARK   48  A    between atoms: _145  and  _148
REMARK   49  A    between atoms: _148  and  _149
REMARK   50  A    between atoms: _154  and  _156
REMARK   51  A    between atoms: _156  and  _157
REMARK   52  A    between atoms: _156  and  _159
REMARK   53  A    between atoms: _159  and  _160
REMARK   54  A    between atoms: _160  and  _161
REMARK   55  A    between atoms: _164  and  _166
REMARK   56  A    between atoms: _166  and  _167
REMARK   57  A    between atoms: _166  and  _169
REMARK   58  A    between atoms: _169  and  _170
REMARK   59  A    between atoms: _173  and  _175
REMARK   60  A    between atoms: _175  and  _176
REMARK   61  A    between atoms: _175  and  _178
REMARK   62  A    between atoms: _178  and  _179
REMARK   63  A    between atoms: _180  and  ZN_340
REMARK   64  A    between atoms: _184  and  _186
REMARK   65  A    between atoms: _186  and  _187
REMARK   66  A    between atoms: _186  and  _189
REMARK   67  A    between atoms: _189  and  _190
REMARK   68  A    between atoms: _193  and  _195
REMARK   69  A    between atoms: _195  and  _196
REMARK   70  A    between atoms: _195  and  _198
REMARK   71  A    between atoms: _201  and  _203
REMARK   72  A    between atoms: _203  and  _204
REMARK   73  A    between atoms: _203  and  _206
REMARK   74  A    between atoms: _206  and  _207
REMARK   75  A    between atoms: _212  and  _214
REMARK   76  A    between atoms: _214  and  _215
REMARK   77  A    between atoms: _214  and  _217
REMARK   78  A    between atoms: _217  and  _218
REMARK   79  A    between atoms: _224  and  _226
REMARK   80  A    between atoms: _226  and  _227
REMARK   81  A    between atoms: _226  and  _229
REMARK   82  A    between atoms: _232  and  _234
REMARK   83  A    between atoms: _234  and  _235
REMARK   84  A    between atoms: _234  and  _237
REMARK   85  A    between atoms: _237  and  _238
REMARK   86  A    between atoms: _241  and  _243
REMARK   87  A    between atoms: _243  and  _244
REMARK   88  A    between atoms: _243  and  _246
REMARK   89  A    between atoms: _249  and  _251
REMARK   90  A    between atoms: _251  and  _252
REMARK   91  A    between atoms: _251  and  _254
REMARK   92  A    between atoms: _254  and  _255
REMARK   93  A    between atoms: _257  and  _259
REMARK   94  A    between atoms: _259  and  _260
REMARK   95  A    between atoms: _259  and  _262
REMARK   96  A    between atoms: _262  and  _263
REMARK   97  A    between atoms: _266  and  _268
REMARK   98  A    between atoms: _268  and  _269
REMARK   99  A    between atoms: _268  and  _271
REMARK  100  A    between atoms: _271  and  _272
REMARK  101  A    between atoms: _275  and  _277
REMARK  102  A    between atoms: _277  and  _278
REMARK  103  A    between atoms: _277  and  _280
REMARK  104  A    between atoms: _280  and  _281
REMARK  105  A    between atoms: _285  and  _286
REMARK  106  A    between atoms: _292  and  _293
REMARK  107  A    between atoms: _298  and  _300
REMARK  108  A    between atoms: _300  and  _301
REMARK  109  A    between atoms: _300  and  _303
REMARK  110  A    between atoms: _303  and  _304
REMARK  111  A    between atoms: _307  and  _309
REMARK  112  A    between atoms: _309  and  _310
REMARK  113  A    between atoms: _309  and  _312
REMARK  114  A    between atoms: _312  and  _313
REMARK  115  A    between atoms: _316  and  _318
REMARK  116  A    between atoms: _318  and  _319
REMARK  117  A    between atoms: _318  and  _321
REMARK  118  A    between atoms: _324  and  _326
REMARK  119  A    between atoms: _326  and  _327
REMARK  120  A    between atoms: _326  and  _329
REMARK  121  A    between atoms: _329  and  _330
REMARK                            x       y       z     vdW  Elec       q    Type
REMARK                         _______ _______ _______ _____ _____    ______ ____
ROOT
ATOM      1  O   HOH     1      16.137   0.739  10.243  0.00  0.00    +0.000 OA
ENDROOT
TORSDOF 0
REMARK  Name = ../refined-set-2016/4q90/4q90_pocket.pdb
REMARK  121 active torsions:
REMARK  status: ('A' for Active; 'I' for Inactive)
REMARK    1  A    between atoms: _1  and  _3
REMARK    2  A    between atoms: _3  and  _4
REMARK    3  A    between atoms: _3  and  _6
REMARK    4  A    between atoms: _6  and  _7
REMARK    5  A    between atoms: _17  and  _19
REMARK    6  A    between atoms: _19  and  _20
REMARK    7  A    between atoms: _19  and  _22
REMARK    8  A    between atoms: _22  and  _23
REMARK    9  A    between atoms: _28  and  _29
REMARK   10  A    between atoms: _31  and  _33
REMARK   11  A    between atoms: _33  and  _34
REMARK   12  A    between atoms: _33  and  _36
REMARK   13  A    between atoms: _36  and  _37
REMARK   14  A    between atoms: _39  and  _41
REMARK   15  A    between atoms: _41  and  _42
REMARK   16  A    between atoms: _41  and  _44
REMARK   17  A    between atoms: _44  and  _45
REMARK   18  A    between atoms: _50  and  _52
REMARK   19  A    between atoms: _52  and  _53
REMARK   20  A    between atoms: _52  and  _55
REMARK   21  A    between atoms: _55  and  _56
REMARK   22  A    between atoms: _61  and  _63
REMARK   23  A    between atoms: _63  and  _64
REMARK   24  A    between atoms: _67  and  _69
REMARK   25  A    between atoms: _69  and  _70
REMARK   26  A    between atoms: _69  and  _72
REMARK   27  A    between atoms: _72  and  _73
REMARK   28  A    between atoms: _78  and  _80
REMARK   29  A    between atoms: _80  and  _81
REMARK   30  A    between atoms: _80  and  _83
REMARK   31  A    between atoms: _83  and  _84
REMARK   32  A    between atoms: _87  and  _89
REMARK   33  A    between atoms: _89  and  _90
REMARK   34  A    between atoms: _89  and  _92
REMARK   35  A    between atoms: _92  and  _93
REMARK   36  A    between atoms: _93  and  _94
REMARK   37  A    between atoms: _99  and  _101
REMARK   38  A    between atoms: _112  and  _115
REMARK   39  A    between atoms: _115  and  _116
REMARK   40  A    between atoms: _124  and  _125
REMARK   41  A    between atoms: _133  and  _135
REMARK   42  A    between atoms: _135  and  _136
REMARK   43  A    between atoms: _135  and  _138
REMARK   44  A    between atoms: _138  and  _139
REMARK   45  A    between atoms: _139  and  _140
REMARK   46  A    between atoms: _143  and  _145
REMARK   47  A    between atoms: _145  and  _146
REMARK   48  A    between atoms: _145  and  _148
REMARK   49  A    between atoms: _148  and  _149
REMARK   50  A    between atoms: _154  and  _156
REMARK   51  A    between atoms: _156  and  _157
REMARK   52  A    between atoms: _156  and  _159
REMARK   53  A    between atoms: _159  and  _160
REMARK   54  A    between atoms: _160  and  _161
REMARK   55  A    between atoms: _164  and  _166
REMARK   56  A    between atoms: _166  and  _167
REMARK   57  A    between atoms: _166  and  _169
REMARK   58  A    between atoms: _169  and  _170
REMARK   59  A    between atoms: _173  and  _175
REMARK   60  A    between atoms: _175  and  _176
REMARK   61  A    between atoms: _175  and  _178
REMARK   62  A    between atoms: _178  and  _179
REMARK   63  A    between atoms: _180  and  ZN_340
REMARK   64  A    between atoms: _184  and  _186
REMARK   65  A    between atoms: _186  and  _187
REMARK   66  A    between atoms: _186  and  _189
REMARK   67  A    between atoms: _189  and  _190
REMARK   68  A    between atoms: _193  and  _195
REMARK   69  A    between atoms: _195  and  _196
REMARK   70  A    between atoms: _195  and  _198
REMARK   71  A    between atoms: _201  and  _203
REMARK   72  A    between atoms: _203  and  _204
REMARK   73  A    between atoms: _203  and  _206
REMARK   74  A    between atoms: _206  and  _207
REMARK   75  A    between atoms: _212  and  _214
REMARK   76  A    between atoms: _214  and  _215
REMARK   77  A    between atoms: _214  and  _217
REMARK   78  A    between atoms: _217  and  _218
REMARK   79  A    between atoms: _224  and  _226
REMARK   80  A    between atoms: _226  and  _227
REMARK   81  A    between atoms: _226  and  _229
REMARK   82  A    between atoms: _232  and  _234
REMARK   83  A    between atoms: _234  and  _235
REMARK   84  A    between atoms: _234  and  _237
REMARK   85  A    between atoms: _237  and  _238
REMARK   86  A    between atoms: _241  and  _243
REMARK   87  A    between atoms: _243  and  _244
REMARK   88  A    between atoms: _243  and  _246
REMARK   89  A    between atoms: _249  and  _251
REMARK   90  A    between atoms: _251  and  _252
REMARK   91  A    between atoms: _251  and  _254
REMARK   92  A    between atoms: _254  and  _255
REMARK   93  A    between atoms: _257  and  _259
REMARK   94  A    between atoms: _259  and  _260
REMARK   95  A    between atoms: _259  and  _262
REMARK   96  A    between atoms: _262  and  _263
REMARK   97  A    between atoms: _266  and  _268
REMARK   98  A    between atoms: _268  and  _269
REMARK   99  A    between atoms: _268  and  _271
REMARK  100  A    between atoms: _271  and  _272
REMARK  101  A    between atoms: _275  and  _277
REMARK  102  A    between atoms: _277  and  _278
REMARK  103  A    between atoms: _277  and  _280
REMARK  104  A    between atoms: _280  and  _281
REMARK  105  A    between atoms: _285  and  _286
REMARK  106  A    between atoms: _292  and  _293
REMARK  107  A    between atoms: _298  and  _300
REMARK  108  A    between atoms: _300  and  _301
REMARK  109  A    between atoms: _300  and  _303
REMARK  110  A    between atoms: _303  and  _304
REMARK  111  A    between atoms: _307  and  _309
REMARK  112  A    between atoms: _309  and  _310
REMARK  113  A    between atoms: _309  and  _312
REMARK  114  A    between atoms: _312  and  _313
REMARK  115  A    between atoms: _316  and  _318
REMARK  116  A    between atoms: _318  and  _319
REMARK  117  A    between atoms: _318  and  _321
REMARK  118  A    between atoms: _324  and  _326
REMARK  119  A    between atoms: _326  and  _327
REMARK  120  A    between atoms: _326  and  _329
REMARK  121  A    between atoms: _329  and  _330
REMARK                            x       y       z     vdW  Elec       q    Type
REMARK                         _______ _______ _______ _____ _____    ______ ____
ROOT
ATOM      1  O   HOH     1      16.665   3.498  10.464  0.00  0.00    +0.000 OA
ENDROOT
TORSDOF 0
REMARK  Name = ../refined-set-2016/4q90/4q90_pocket.pdb
REMARK  121 active torsions:
REMARK  status: ('A' for Active; 'I' for Inactive)
REMARK    1  A    between atoms: _1  and  _3
REMARK    2  A    between atoms: _3  and  _4
REMARK    3  A    between atoms: _3  and  _6
REMARK    4  A    between atoms: _6  and  _7
REMARK    5  A    between atoms: _17  and  _19
REMARK    6  A    between atoms: _19  and  _20
REMARK    7  A    between atoms: _19  and  _22
REMARK    8  A    between atoms: _22  and  _23
REMARK    9  A    between atoms: _28  and  _29
REMARK   10  A    between atoms: _31  and  _33
REMARK   11  A    between atoms: _33  and  _34
REMARK   12  A    between atoms: _33  and  _36
REMARK   13  A    between atoms: _36  and  _37
REMARK   14  A    between atoms: _39  and  _41
REMARK   15  A    between atoms: _41  and  _42
REMARK   16  A    between atoms: _41  and  _44
REMARK   17  A    between atoms: _44  and  _45
REMARK   18  A    between atoms: _50  and  _52
REMARK   19  A    between atoms: _52  and  _53
REMARK   20  A    between atoms: _52  and  _55
REMARK   21  A    between atoms: _55  and  _56
REMARK   22  A    between atoms: _61  and  _63
REMARK   23  A    between atoms: _63  and  _64
REMARK   24  A    between atoms: _67  and  _69
REMARK   25  A    between atoms: _69  and  _70
REMARK   26  A    between atoms: _69  and  _72
REMARK   27  A    between atoms: _72  and  _73
REMARK   28  A    between atoms: _78  and  _80
REMARK   29  A    between atoms: _80  and  _81
REMARK   30  A    between atoms: _80  and  _83
REMARK   31  A    between atoms: _83  and  _84
REMARK   32  A    between atoms: _87  and  _89
REMARK   33  A    between atoms: _89  and  _90
REMARK   34  A    between atoms: _89  and  _92
REMARK   35  A    between atoms: _92  and  _93
REMARK   36  A    between atoms: _93  and  _94
REMARK   37  A    between atoms: _99  and  _101
REMARK   38  A    between atoms: _112  and  _115
REMARK   39  A    between atoms: _115  and  _116
REMARK   40  A    between atoms: _124  and  _125
REMARK   41  A    between atoms: _133  and  _135
REMARK   42  A    between atoms: _135  and  _136
REMARK   43  A    between atoms: _135  and  _138
REMARK   44  A    between atoms: _138  and  _139
REMARK   45  A    between atoms: _139  and  _140
REMARK   46  A    between atoms: _143  and  _145
REMARK   47  A    between atoms: _145  and  _146
REMARK   48  A    between atoms: _145  and  _148
REMARK   49  A    between atoms: _148  and  _149
REMARK   50  A    between atoms: _154  and  _156
REMARK   51  A    between atoms: _156  and  _157
REMARK   52  A    between atoms: _156  and  _159
REMARK   53  A    between atoms: _159  and  _160
REMARK   54  A    between atoms: _160  and  _161
REMARK   55  A    between atoms: _164  and  _166
REMARK   56  A    between atoms: _166  and  _167
REMARK   57  A    between atoms: _166  and  _169
REMARK   58  A    between atoms: _169  and  _170
REMARK   59  A    between atoms: _173  and  _175
REMARK   60  A    between atoms: _175  and  _176
REMARK   61  A    between atoms: _175  and  _178
REMARK   62  A    between atoms: _178  and  _179
REMARK   63  A    between atoms: _180  and  ZN_340
REMARK   64  A    between atoms: _184  and  _186
REMARK   65  A    between atoms: _186  and  _187
REMARK   66  A    between atoms: _186  and  _189
REMARK   67  A    between atoms: _189  and  _190
REMARK   68  A    between atoms: _193  and  _195
REMARK   69  A    between atoms: _195  and  _196
REMARK   70  A    between atoms: _195  and  _198
REMARK   71  A    between atoms: _201  and  _203
REMARK   72  A    between atoms: _203  and  _204
REMARK   73  A    between atoms: _203  and  _206
REMARK   74  A    between atoms: _206  and  _207
REMARK   75  A    between atoms: _212  and  _214
REMARK   76  A    between atoms: _214  and  _215
REMARK   77  A    between atoms: _214  and  _217
REMARK   78  A    between atoms: _217  and  _218
REMARK   79  A    between atoms: _224  and  _226
REMARK   80  A    between atoms: _226  and  _227
REMARK   81  A    between atoms: _226  and  _229
REMARK   82  A    between atoms: _232  and  _234
REMARK   83  A    between atoms: _234  and  _235
REMARK   84  A    between atoms: _234  and  _237
REMARK   85  A    between atoms: _237  and  _238
REMARK   86  A    between atoms: _241  and  _243
REMARK   87  A    between atoms: _243  and  _244
REMARK   88  A    between atoms: _243  and  _246
REMARK   89  A    between atoms: _249  and  _251
REMARK   90  A    between atoms: _251  and  _252
REMARK   91  A    between atoms: _251  and  _254
REMARK   92  A    between atoms: _254  and  _255
REMARK   93  A    between atoms: _257  and  _259
REMARK   94  A    between atoms: _259  and  _260
REMARK   95  A    between atoms: _259  and  _262
REMARK   96  A    between atoms: _262  and  _263
REMARK   97  A    between atoms: _266  and  _268
REMARK   98  A    between atoms: _268  and  _269
REMARK   99  A    between atoms: _268  and  _271
REMARK  100  A    between atoms: _271  and  _272
REMARK  101  A    between atoms: _275  and  _277
REMARK  102  A    between atoms: _277  and  _278
REMARK  103  A    between atoms: _277  and  _280
REMARK  104  A    between atoms: _280  and  _281
REMARK  105  A    between atoms: _285  and  _286
REMARK  106  A    between atoms: _292  and  _293
REMARK  107  A    between atoms: _298  and  _300
REMARK  108  A    between atoms: _300  and  _301
REMARK  109  A    between atoms: _300  and  _303
REMARK  110  A    between atoms: _303  and  _304
REMARK  111  A    between atoms: _307  and  _309
REMARK  112  A    between atoms: _309  and  _310
REMARK  113  A    between atoms: _309  and  _312
REMARK  114  A    between atoms: _312  and  _313
REMARK  115  A    between atoms: _316  and  _318
REMARK  116  A    between atoms: _318  and  _319
REMARK  117  A    between atoms: _318  and  _321
REMARK  118  A    between atoms: _324  and  _326
REMARK  119  A    between atoms: _326  and  _327
REMARK  120  A    between atoms: _326  and  _329
REMARK  121  A    between atoms: _329  and  _330
REMARK                            x       y       z     vdW  Elec       q    Type
REMARK                         _______ _______ _______ _____ _____    ______ ____
ROOT
ATOM      1  O   HOH     1      17.806  -1.118  15.186  0.00  0.00    +0.000 OA
ENDROOT
TORSDOF 0
REMARK  Name = ../refined-set-2016/4q90/4q90_pocket.pdb
REMARK  121 active torsions:
REMARK  status: ('A' for Active; 'I' for Inactive)
REMARK    1  A    between atoms: _1  and  _3
REMARK    2  A    between atoms: _3  and  _4
REMARK    3  A    between atoms: _3  and  _6
REMARK    4  A    between atoms: _6  and  _7
REMARK    5  A    between atoms: _17  and  _19
REMARK    6  A    between atoms: _19  and  _20
REMARK    7  A    between atoms: _19  and  _22
REMARK    8  A    between atoms: _22  and  _23
REMARK    9  A    between atoms: _28  and  _29
REMARK   10  A    between atoms: _31  and  _33
REMARK   11  A    between atoms: _33  and  _34
REMARK   12  A    between atoms: _33  and  _36
REMARK   13  A    between atoms: _36  and  _37
REMARK   14  A    between atoms: _39  and  _41
REMARK   15  A    between atoms: _41  and  _42
REMARK   16  A    between atoms: _41  and  _44
REMARK   17  A    between atoms: _44  and  _45
REMARK   18  A    between atoms: _50  and  _52
REMARK   19  A    between atoms: _52  and  _53
REMARK   20  A    between atoms: _52  and  _55
REMARK   21  A    between atoms: _55  and  _56
REMARK   22  A    between atoms: _61  and  _63
REMARK   23  A    between atoms: _63  and  _64
REMARK   24  A    between atoms: _67  and  _69
REMARK   25  A    between atoms: _69  and  _70
REMARK   26  A    between atoms: _69  and  _72
REMARK   27  A    between atoms: _72  and  _73
REMARK   28  A    between atoms: _78  and  _80
REMARK   29  A    between atoms: _80  and  _81
REMARK   30  A    between atoms: _80  and  _83
REMARK   31  A    between atoms: _83  and  _84
REMARK   32  A    between atoms: _87  and  _89
REMARK   33  A    between atoms: _89  and  _90
REMARK   34  A    between atoms: _89  and  _92
REMARK   35  A    between atoms: _92  and  _93
REMARK   36  A    between atoms: _93  and  _94
REMARK   37  A    between atoms: _99  and  _101
REMARK   38  A    between atoms: _112  and  _115
REMARK   39  A    between atoms: _115  and  _116
REMARK   40  A    between atoms: _124  and  _125
REMARK   41  A    between atoms: _133  and  _135
REMARK   42  A    between atoms: _135  and  _136
REMARK   43  A    between atoms: _135  and  _138
REMARK   44  A    between atoms: _138  and  _139
REMARK   45  A    between atoms: _139  and  _140
REMARK   46  A    between atoms: _143  and  _145
REMARK   47  A    between atoms: _145  and  _146
REMARK   48  A    between atoms: _145  and  _148
REMARK   49  A    between atoms: _148  and  _149
REMARK   50  A    between atoms: _154  and  _156
REMARK   51  A    between atoms: _156  and  _157
REMARK   52  A    between atoms: _156  and  _159
REMARK   53  A    between atoms: _159  and  _160
REMARK   54  A    between atoms: _160  and  _161
REMARK   55  A    between atoms: _164  and  _166
REMARK   56  A    between atoms: _166  and  _167
REMARK   57  A    between atoms: _166  and  _169
REMARK   58  A    between atoms: _169  and  _170
REMARK   59  A    between atoms: _173  and  _175
REMARK   60  A    between atoms: _175  and  _176
REMARK   61  A    between atoms: _175  and  _178
REMARK   62  A    between atoms: _178  and  _179
REMARK   63  A    between atoms: _180  and  ZN_340
REMARK   64  A    between atoms: _184  and  _186
REMARK   65  A    between atoms: _186  and  _187
REMARK   66  A    between atoms: _186  and  _189
REMARK   67  A    between atoms: _189  and  _190
REMARK   68  A    between atoms: _193  and  _195
REMARK   69  A    between atoms: _195  and  _196
REMARK   70  A    between atoms: _195  and  _198
REMARK   71  A    between atoms: _201  and  _203
REMARK   72  A    between atoms: _203  and  _204
REMARK   73  A    between atoms: _203  and  _206
REMARK   74  A    between atoms: _206  and  _207
REMARK   75  A    between atoms: _212  and  _214
REMARK   76  A    between atoms: _214  and  _215
REMARK   77  A    between atoms: _214  and  _217
REMARK   78  A    between atoms: _217  and  _218
REMARK   79  A    between atoms: _224  and  _226
REMARK   80  A    between atoms: _226  and  _227
REMARK   81  A    between atoms: _226  and  _229
REMARK   82  A    between atoms: _232  and  _234
REMARK   83  A    between atoms: _234  and  _235
REMARK   84  A    between atoms: _234  and  _237
REMARK   85  A    between atoms: _237  and  _238
REMARK   86  A    between atoms: _241  and  _243
REMARK   87  A    between atoms: _243  and  _244
REMARK   88  A    between atoms: _243  and  _246
REMARK   89  A    between atoms: _249  and  _251
REMARK   90  A    between atoms: _251  and  _252
REMARK   91  A    between atoms: _251  and  _254
REMARK   92  A    between atoms: _254  and  _255
REMARK   93  A    between atoms: _257  and  _259
REMARK   94  A    between atoms: _259  and  _260
REMARK   95  A    between atoms: _259  and  _262
REMARK   96  A    between atoms: _262  and  _263
REMARK   97  A    between atoms: _266  and  _268
REMARK   98  A    between atoms: _268  and  _269
REMARK   99  A    between atoms: _268  and  _271
REMARK  100  A    between atoms: _271  and  _272
REMARK  101  A    between atoms: _275  and  _277
REMARK  102  A    between atoms: _277  and  _278
REMARK  103  A    between atoms: _277  and  _280
REMARK  104  A    between atoms: _280  and  _281
REMARK  105  A    between atoms: _285  and  _286
REMARK  106  A    between atoms: _292  and  _293
REMARK  107  A    between atoms: _298  and  _300
REMARK  108  A    between atoms: _300  and  _301
REMARK  109  A    between atoms: _300  and  _303
REMARK  110  A    between atoms: _303  and  _304
REMARK  111  A    between atoms: _307  and  _309
REMARK  112  A    between atoms: _309  and  _310
REMARK  113  A    between atoms: _309  and  _312
REMARK  114  A    between atoms: _312  and  _313
REMARK  115  A    between atoms: _316  and  _318
REMARK  116  A    between atoms: _318  and  _319
REMARK  117  A    between atoms: _318  and  _321
REMARK  118  A    between atoms: _324  and  _326
REMARK  119  A    between atoms: _326  and  _327
REMARK  120  A    between atoms: _326  and  _329
REMARK  121  A    between atoms: _329  and  _330
REMARK                            x       y       z     vdW  Elec       q    Type
REMARK                         _______ _______ _______ _____ _____    ______ ____
ROOT
ATOM      1  O   HOH     1      15.407   7.197  11.391  0.00  0.00    +0.000 OA
ENDROOT
TORSDOF 0
REMARK  Name = ../refined-set-2016/4q90/4q90_pocket.pdb
REMARK  121 active torsions:
REMARK  status: ('A' for Active; 'I' for Inactive)
REMARK    1  A    between atoms: _1  and  _3
REMARK    2  A    between atoms: _3  and  _4
REMARK    3  A    between atoms: _3  and  _6
REMARK    4  A    between atoms: _6  and  _7
REMARK    5  A    between atoms: _17  and  _19
REMARK    6  A    between atoms: _19  and  _20
REMARK    7  A    between atoms: _19  and  _22
REMARK    8  A    between atoms: _22  and  _23
REMARK    9  A    between atoms: _28  and  _29
REMARK   10  A    between atoms: _31  and  _33
REMARK   11  A    between atoms: _33  and  _34
REMARK   12  A    between atoms: _33  and  _36
REMARK   13  A    between atoms: _36  and  _37
REMARK   14  A    between atoms: _39  and  _41
REMARK   15  A    between atoms: _41  and  _42
REMARK   16  A    between atoms: _41  and  _44
REMARK   17  A    between atoms: _44  and  _45
REMARK   18  A    between atoms: _50  and  _52
REMARK   19  A    between atoms: _52  and  _53
REMARK   20  A    between atoms: _52  and  _55
REMARK   21  A    between atoms: _55  and  _56
REMARK   22  A    between atoms: _61  and  _63
REMARK   23  A    between atoms: _63  and  _64
REMARK   24  A    between atoms: _67  and  _69
REMARK   25  A    between atoms: _69  and  _70
REMARK   26  A    between atoms: _69  and  _72
REMARK   27  A    between atoms: _72  and  _73
REMARK   28  A    between atoms: _78  and  _80
REMARK   29  A    between atoms: _80  and  _81
REMARK   30  A    between atoms: _80  and  _83
REMARK   31  A    between atoms: _83  and  _84
REMARK   32  A    between atoms: _87  and  _89
REMARK   33  A    between atoms: _89  and  _90
REMARK   34  A    between atoms: _89  and  _92
REMARK   35  A    between atoms: _92  and  _93
REMARK   36  A    between atoms: _93  and  _94
REMARK   37  A    between atoms: _99  and  _101
REMARK   38  A    between atoms: _112  and  _115
REMARK   39  A    between atoms: _115  and  _116
REMARK   40  A    between atoms: _124  and  _125
REMARK   41  A    between atoms: _133  and  _135
REMARK   42  A    between atoms: _135  and  _136
REMARK   43  A    between atoms: _135  and  _138
REMARK   44  A    between atoms: _138  and  _139
REMARK   45  A    between atoms: _139  and  _140
REMARK   46  A    between atoms: _143  and  _145
REMARK   47  A    between atoms: _145  and  _146
REMARK   48  A    between atoms: _145  and  _148
REMARK   49  A    between atoms: _148  and  _149
REMARK   50  A    between atoms: _154  and  _156
REMARK   51  A    between atoms: _156  and  _157
REMARK   52  A    between atoms: _156  and  _159
REMARK   53  A    between atoms: _159  and  _160
REMARK   54  A    between atoms: _160  and  _161
REMARK   55  A    between atoms: _164  and  _166
REMARK   56  A    between atoms: _166  and  _167
REMARK   57  A    between atoms: _166  and  _169
REMARK   58  A    between atoms: _169  and  _170
REMARK   59  A    between atoms: _173  and  _175
REMARK   60  A    between atoms: _175  and  _176
REMARK   61  A    between atoms: _175  and  _178
REMARK   62  A    between atoms: _178  and  _179
REMARK   63  A    between atoms: _180  and  ZN_340
REMARK   64  A    between atoms: _184  and  _186
REMARK   65  A    between atoms: _186  and  _187
REMARK   66  A    between atoms: _186  and  _189
REMARK   67  A    between atoms: _189  and  _190
REMARK   68  A    between atoms: _193  and  _195
REMARK   69  A    between atoms: _195  and  _196
REMARK   70  A    between atoms: _195  and  _198
REMARK   71  A    between atoms: _201  and  _203
REMARK   72  A    between atoms: _203  and  _204
REMARK   73  A    between atoms: _203  and  _206
REMARK   74  A    between atoms: _206  and  _207
REMARK   75  A    between atoms: _212  and  _214
REMARK   76  A    between atoms: _214  and  _215
REMARK   77  A    between atoms: _214  and  _217
REMARK   78  A    between atoms: _217  and  _218
REMARK   79  A    between atoms: _224  and  _226
REMARK   80  A    between atoms: _226  and  _227
REMARK   81  A    between atoms: _226  and  _229
REMARK   82  A    between atoms: _232  and  _234
REMARK   83  A    between atoms: _234  and  _235
REMARK   84  A    between atoms: _234  and  _237
REMARK   85  A    between atoms: _237  and  _238
REMARK   86  A    between atoms: _241  and  _243
REMARK   87  A    between atoms: _243  and  _244
REMARK   88  A    between atoms: _243  and  _246
REMARK   89  A    between atoms: _249  and  _251
REMARK   90  A    between atoms: _251  and  _252
REMARK   91  A    between atoms: _251  and  _254
REMARK   92  A    between atoms: _254  and  _255
REMARK   93  A    between atoms: _257  and  _259
REMARK   94  A    between atoms: _259  and  _260
REMARK   95  A    between atoms: _259  and  _262
REMARK   96  A    between atoms: _262  and  _263
REMARK   97  A    between atoms: _266  and  _268
REMARK   98  A    between atoms: _268  and  _269
REMARK   99  A    between atoms: _268  and  _271
REMARK  100  A    between atoms: _271  and  _272
REMARK  101  A    between atoms: _275  and  _277
REMARK  102  A    between atoms: _277  and  _278
REMARK  103  A    between atoms: _277  and  _280
REMARK  104  A    between atoms: _280  and  _281
REMARK  105  A    between atoms: _285  and  _286
REMARK  106  A    between atoms: _292  and  _293
REMARK  107  A    between atoms: _298  and  _300
REMARK  108  A    between atoms: _300  and  _301
REMARK  109  A    between atoms: _300  and  _303
REMARK  110  A    between atoms: _303  and  _304
REMARK  111  A    between atoms: _307  and  _309
REMARK  112  A    between atoms: _309  and  _310
REMARK  113  A    between atoms: _309  and  _312
REMARK  114  A    between atoms: _312  and  _313
REMARK  115  A    between atoms: _316  and  _318
REMARK  116  A    between atoms: _318  and  _319
REMARK  117  A    between atoms: _318  and  _321
REMARK  118  A    between atoms: _324  and  _326
REMARK  119  A    between atoms: _326  and  _327
REMARK  120  A    between atoms: _326  and  _329
REMARK  121  A    between atoms: _329  and  _330
REMARK                            x       y       z     vdW  Elec       q    Type
REMARK                         _______ _______ _______ _____ _____    ______ ____
ROOT
ATOM      1  O   HOH     1      12.969   7.372   8.588  0.00  0.00    +0.000 OA
ENDROOT
TORSDOF 0
REMARK  Name = ../refined-set-2016/4q90/4q90_pocket.pdb
REMARK  121 active torsions:
REMARK  status: ('A' for Active; 'I' for Inactive)
REMARK    1  A    between atoms: _1  and  _3
REMARK    2  A    between atoms: _3  and  _4
REMARK    3  A    between atoms: _3  and  _6
REMARK    4  A    between atoms: _6  and  _7
REMARK    5  A    between atoms: _17  and  _19
REMARK    6  A    between atoms: _19  and  _20
REMARK    7  A    between atoms: _19  and  _22
REMARK    8  A    between atoms: _22  and  _23
REMARK    9  A    between atoms: _28  and  _29
REMARK   10  A    between atoms: _31  and  _33
REMARK   11  A    between atoms: _33  and  _34
REMARK   12  A    between atoms: _33  and  _36
REMARK   13  A    between atoms: _36  and  _37
REMARK   14  A    between atoms: _39  and  _41
REMARK   15  A    between atoms: _41  and  _42
REMARK   16  A    between atoms: _41  and  _44
REMARK   17  A    between atoms: _44  and  _45
REMARK   18  A    between atoms: _50  and  _52
REMARK   19  A    between atoms: _52  and  _53
REMARK   20  A    between atoms: _52  and  _55
REMARK   21  A    between atoms: _55  and  _56
REMARK   22  A    between atoms: _61  and  _63
REMARK   23  A    between atoms: _63  and  _64
REMARK   24  A    between atoms: _67  and  _69
REMARK   25  A    between atoms: _69  and  _70
REMARK   26  A    between atoms: _69  and  _72
REMARK   27  A    between atoms: _72  and  _73
REMARK   28  A    between atoms: _78  and  _80
REMARK   29  A    between atoms: _80  and  _81
REMARK   30  A    between atoms: _80  and  _83
REMARK   31  A    between atoms: _83  and  _84
REMARK   32  A    between atoms: _87  and  _89
REMARK   33  A    between atoms: _89  and  _90
REMARK   34  A    between atoms: _89  and  _92
REMARK   35  A    between atoms: _92  and  _93
REMARK   36  A    between atoms: _93  and  _94
REMARK   37  A    between atoms: _99  and  _101
REMARK   38  A    between atoms: _112  and  _115
REMARK   39  A    between atoms: _115  and  _116
REMARK   40  A    between atoms: _124  and  _125
REMARK   41  A    between atoms: _133  and  _135
REMARK   42  A    between atoms: _135  and  _136
REMARK   43  A    between atoms: _135  and  _138
REMARK   44  A    between atoms: _138  and  _139
REMARK   45  A    between atoms: _139  and  _140
REMARK   46  A    between atoms: _143  and  _145
REMARK   47  A    between atoms: _145  and  _146
REMARK   48  A    between atoms: _145  and  _148
REMARK   49  A    between atoms: _148  and  _149
REMARK   50  A    between atoms: _154  and  _156
REMARK   51  A    between atoms: _156  and  _157
REMARK   52  A    between atoms: _156  and  _159
REMARK   53  A    between atoms: _159  and  _160
REMARK   54  A    between atoms: _160  and  _161
REMARK   55  A    between atoms: _164  and  _166
REMARK   56  A    between atoms: _166  and  _167
REMARK   57  A    between atoms: _166  and  _169
REMARK   58  A    between atoms: _169  and  _170
REMARK   59  A    between atoms: _173  and  _175
REMARK   60  A    between atoms: _175  and  _176
REMARK   61  A    between atoms: _175  and  _178
REMARK   62  A    between atoms: _178  and  _179
REMARK   63  A    between atoms: _180  and  ZN_340
REMARK   64  A    between atoms: _184  and  _186
REMARK   65  A    between atoms: _186  and  _187
REMARK   66  A    between atoms: _186  and  _189
REMARK   67  A    between atoms: _189  and  _190
REMARK   68  A    between atoms: _193  and  _195
REMARK   69  A    between atoms: _195  and  _196
REMARK   70  A    between atoms: _195  and  _198
REMARK   71  A    between atoms: _201  and  _203
REMARK   72  A    between atoms: _203  and  _204
REMARK   73  A    between atoms: _203  and  _206
REMARK   74  A    between atoms: _206  and  _207
REMARK   75  A    between atoms: _212  and  _214
REMARK   76  A    between atoms: _214  and  _215
REMARK   77  A    between atoms: _214  and  _217
REMARK   78  A    between atoms: _217  and  _218
REMARK   79  A    between atoms: _224  and  _226
REMARK   80  A    between atoms: _226  and  _227
REMARK   81  A    between atoms: _226  and  _229
REMARK   82  A    between atoms: _232  and  _234
REMARK   83  A    between atoms: _234  and  _235
REMARK   84  A    between atoms: _234  and  _237
REMARK   85  A    between atoms: _237  and  _238
REMARK   86  A    between atoms: _241  and  _243
REMARK   87  A    between atoms: _243  and  _244
REMARK   88  A    between atoms: _243  and  _246
REMARK   89  A    between atoms: _249  and  _251
REMARK   90  A    between atoms: _251  and  _252
REMARK   91  A    between atoms: _251  and  _254
REMARK   92  A    between atoms: _254  and  _255
REMARK   93  A    between atoms: _257  and  _259
REMARK   94  A    between atoms: _259  and  _260
REMARK   95  A    between atoms: _259  and  _262
REMARK   96  A    between atoms: _262  and  _263
REMARK   97  A    between atoms: _266  and  _268
REMARK   98  A    between atoms: _268  and  _269
REMARK   99  A    between atoms: _268  and  _271
REMARK  100  A    between atoms: _271  and  _272
REMARK  101  A    between atoms: _275  and  _277
REMARK  102  A    between atoms: _277  and  _278
REMARK  103  A    between atoms: _277  and  _280
REMARK  104  A    between atoms: _280  and  _281
REMARK  105  A    between atoms: _285  and  _286
REMARK  106  A    between atoms: _292  and  _293
REMARK  107  A    between atoms: _298  and  _300
REMARK  108  A    between atoms: _300  and  _301
REMARK  109  A    between atoms: _300  and  _303
REMARK  110  A    between atoms: _303  and  _304
REMARK  111  A    between atoms: _307  and  _309
REMARK  112  A    between atoms: _309  and  _310
REMARK  113  A    between atoms: _309  and  _312
REMARK  114  A    between atoms: _312  and  _313
REMARK  115  A    between atoms: _316  and  _318
REMARK  116  A    between atoms: _318  and  _319
REMARK  117  A    between atoms: _318  and  _321
REMARK  118  A    between atoms: _324  and  _326
REMARK  119  A    between atoms: _326  and  _327
REMARK  120  A    between atoms: _326  and  _329
REMARK  121  A    between atoms: _329  and  _330
REMARK                            x       y       z     vdW  Elec       q    Type
REMARK                         _______ _______ _______ _____ _____    ______ ____
ROOT
ATOM      1  O   HOH     1      18.819   6.198  13.854  0.00  0.00    +0.000 OA
ENDROOT
TORSDOF 0
REMARK  Name = ../refined-set-2016/4q90/4q90_pocket.pdb
REMARK  121 active torsions:
REMARK  status: ('A' for Active; 'I' for Inactive)
REMARK    1  A    between atoms: _1  and  _3
REMARK    2  A    between atoms: _3  and  _4
REMARK    3  A    between atoms: _3  and  _6
REMARK    4  A    between atoms: _6  and  _7
REMARK    5  A    between atoms: _17  and  _19
REMARK    6  A    between atoms: _19  and  _20
REMARK    7  A    between atoms: _19  and  _22
REMARK    8  A    between atoms: _22  and  _23
REMARK    9  A    between atoms: _28  and  _29
REMARK   10  A    between atoms: _31  and  _33
REMARK   11  A    between atoms: _33  and  _34
REMARK   12  A    between atoms: _33  and  _36
REMARK   13  A    between atoms: _36  and  _37
REMARK   14  A    between atoms: _39  and  _41
REMARK   15  A    between atoms: _41  and  _42
REMARK   16  A    between atoms: _41  and  _44
REMARK   17  A    between atoms: _44  and  _45
REMARK   18  A    between atoms: _50  and  _52
REMARK   19  A    between atoms: _52  and  _53
REMARK   20  A    between atoms: _52  and  _55
REMARK   21  A    between atoms: _55  and  _56
REMARK   22  A    between atoms: _61  and  _63
REMARK   23  A    between atoms: _63  and  _64
REMARK   24  A    between atoms: _67  and  _69
REMARK   25  A    between atoms: _69  and  _70
REMARK   26  A    between atoms: _69  and  _72
REMARK   27  A    between atoms: _72  and  _73
REMARK   28  A    between atoms: _78  and  _80
REMARK   29  A    between atoms: _80  and  _81
REMARK   30  A    between atoms: _80  and  _83
REMARK   31  A    between atoms: _83  and  _84
REMARK   32  A    between atoms: _87  and  _89
REMARK   33  A    between atoms: _89  and  _90
REMARK   34  A    between atoms: _89  and  _92
REMARK   35  A    between atoms: _92  and  _93
REMARK   36  A    between atoms: _93  and  _94
REMARK   37  A    between atoms: _99  and  _101
REMARK   38  A    between atoms: _112  and  _115
REMARK   39  A    between atoms: _115  and  _116
REMARK   40  A    between atoms: _124  and  _125
REMARK   41  A    between atoms: _133  and  _135
REMARK   42  A    between atoms: _135  and  _136
REMARK   43  A    between atoms: _135  and  _138
REMARK   44  A    between atoms: _138  and  _139
REMARK   45  A    between atoms: _139  and  _140
REMARK   46  A    between atoms: _143  and  _145
REMARK   47  A    between atoms: _145  and  _146
REMARK   48  A    between atoms: _145  and  _148
REMARK   49  A    between atoms: _148  and  _149
REMARK   50  A    between atoms: _154  and  _156
REMARK   51  A    between atoms: _156  and  _157
REMARK   52  A    between atoms: _156  and  _159
REMARK   53  A    between atoms: _159  and  _160
REMARK   54  A    between atoms: _160  and  _161
REMARK   55  A    between atoms: _164  and  _166
REMARK   56  A    between atoms: _166  and  _167
REMARK   57  A    between atoms: _166  and  _169
REMARK   58  A    between atoms: _169  and  _170
REMARK   59  A    between atoms: _173  and  _175
REMARK   60  A    between atoms: _175  and  _176
REMARK   61  A    between atoms: _175  and  _178
REMARK   62  A    between atoms: _178  and  _179
REMARK   63  A    between atoms: _180  and  ZN_340
REMARK   64  A    between atoms: _184  and  _186
REMARK   65  A    between atoms: _186  and  _187
REMARK   66  A    between atoms: _186  and  _189
REMARK   67  A    between atoms: _189  and  _190
REMARK   68  A    between atoms: _193  and  _195
REMARK   69  A    between atoms: _195  and  _196
REMARK   70  A    between atoms: _195  and  _198
REMARK   71  A    between atoms: _201  and  _203
REMARK   72  A    between atoms: _203  and  _204
REMARK   73  A    between atoms: _203  and  _206
REMARK   74  A    between atoms: _206  and  _207
REMARK   75  A    between atoms: _212  and  _214
REMARK   76  A    between atoms: _214  and  _215
REMARK   77  A    between atoms: _214  and  _217
REMARK   78  A    between atoms: _217  and  _218
REMARK   79  A    between atoms: _224  and  _226
REMARK   80  A    between atoms: _226  and  _227
REMARK   81  A    between atoms: _226  and  _229
REMARK   82  A    between atoms: _232  and  _234
REMARK   83  A    between atoms: _234  and  _235
REMARK   84  A    between atoms: _234  and  _237
REMARK   85  A    between atoms: _237  and  _238
REMARK   86  A    between atoms: _241  and  _243
REMARK   87  A    between atoms: _243  and  _244
REMARK   88  A    between atoms: _243  and  _246
REMARK   89  A    between atoms: _249  and  _251
REMARK   90  A    between atoms: _251  and  _252
REMARK   91  A    between atoms: _251  and  _254
REMARK   92  A    between atoms: _254  and  _255
REMARK   93  A    between atoms: _257  and  _259
REMARK   94  A    between atoms: _259  and  _260
REMARK   95  A    between atoms: _259  and  _262
REMARK   96  A    between atoms: _262  and  _263
REMARK   97  A    between atoms: _266  and  _268
REMARK   98  A    between atoms: _268  and  _269
REMARK   99  A    between atoms: _268  and  _271
REMARK  100  A    between atoms: _271  and  _272
REMARK  101  A    between atoms: _275  and  _277
REMARK  102  A    between atoms: _277  and  _278
REMARK  103  A    between atoms: _277  and  _280
REMARK  104  A    between atoms: _280  and  _281
REMARK  105  A    between atoms: _285  and  _286
REMARK  106  A    between atoms: _292  and  _293
REMARK  107  A    between atoms: _298  and  _300
REMARK  108  A    between atoms: _300  and  _301
REMARK  109  A    between atoms: _300  and  _303
REMARK  110  A    between atoms: _303  and  _304
REMARK  111  A    between atoms: _307  and  _309
REMARK  112  A    between atoms: _309  and  _310
REMARK  113  A    between atoms: _309  and  _312
REMARK  114  A    between atoms: _312  and  _313
REMARK  115  A    between atoms: _316  and  _318
REMARK  116  A    between atoms: _318  and  _319
REMARK  117  A    between atoms: _318  and  _321
REMARK  118  A    between atoms: _324  and  _326
REMARK  119  A    between atoms: _326  and  _327
REMARK  120  A    between atoms: _326  and  _329
REMARK  121  A    between atoms: _329  and  _330
REMARK                            x       y       z     vdW  Elec       q    Type
REMARK                         _______ _______ _______ _____ _____    ______ ____
ROOT
ATOM      1  O   HOH     1      17.966   4.551   7.669  0.00  0.00    +0.000 OA
ENDROOT
TORSDOF 0
