REMARK  Name = ../refined-set-2016/4f7v/4f7v_pocket.pdb
REMARK  248 active torsions:
REMARK  status: ('A' for Active; 'I' for Inactive)
REMARK    1  A    between atoms: _1  and  _3
REMARK    2  A    between atoms: _3  and  _4
REMARK    3  A    between atoms: _3  and  _6
REMARK    4  A    between atoms: _6  and  _7
REMARK    5  A    between atoms: _12  and  _13
REMARK    6  A    between atoms: _15  and  _17
REMARK    7  A    between atoms: _17  and  _18
REMARK    8  A    between atoms: _17  and  _20
REMARK    9  A    between atoms: _20  and  _21
REMARK   10  A    between atoms: _24  and  _26
REMARK   11  A    between atoms: _26  and  _27
REMARK   12  A    between atoms: _30  and  _32
REMARK   13  A    between atoms: _32  and  _33
REMARK   14  A    between atoms: _32  and  _35
REMARK   15  A    between atoms: _35  and  _36
REMARK   16  A    between atoms: _39  and  _41
REMARK   17  A    between atoms: _41  and  _42
REMARK   18  A    between atoms: _44  and  _46
REMARK   19  A    between atoms: _46  and  _47
REMARK   20  A    between atoms: _46  and  _49
REMARK   21  A    between atoms: _49  and  _50
REMARK   22  A    between atoms: _52  and  _54
REMARK   23  A    between atoms: _54  and  _55
REMARK   24  A    between atoms: _54  and  _57
REMARK   25  A    between atoms: _57  and  _58
REMARK   26  A    between atoms: _63  and  _65
REMARK   27  A    between atoms: _65  and  _66
REMARK   28  A    between atoms: _65  and  _68
REMARK   29  A    between atoms: _68  and  _69
REMARK   30  A    between atoms: _74  and  _75
REMARK   31  A    between atoms: _77  and  _79
REMARK   32  A    between atoms: _79  and  _80
REMARK   33  A    between atoms: _79  and  _82
REMARK   34  A    between atoms: _82  and  _83
REMARK   35  A    between atoms: _83  and  _84
REMARK   36  A    between atoms: _84  and  _85
REMARK   37  A    between atoms: _94  and  _96
REMARK   38  A    between atoms: _96  and  _97
REMARK   39  A    between atoms: _96  and  _99
REMARK   40  A    between atoms: _99  and  _100
REMARK   41  A    between atoms: _104  and  _105
REMARK   42  A    between atoms: _111  and  _112
REMARK   43  A    between atoms: _117  and  _119
REMARK   44  A    between atoms: _119  and  _120
REMARK   45  A    between atoms: _119  and  _122
REMARK   46  A    between atoms: _122  and  _123
REMARK   47  A    between atoms: _126  and  _128
REMARK   48  A    between atoms: _128  and  _129
REMARK   49  A    between atoms: _132  and  _133
REMARK   50  A    between atoms: _138  and  _140
REMARK   51  A    between atoms: _140  and  _141
REMARK   52  A    between atoms: _140  and  _143
REMARK   53  A    between atoms: _143  and  _144
REMARK   54  A    between atoms: _144  and  _145
REMARK   55  A    between atoms: _150  and  _152
REMARK   56  A    between atoms: _152  and  _153
REMARK   57  A    between atoms: _152  and  _155
REMARK   58  A    between atoms: _155  and  _156
REMARK   59  A    between atoms: _156  and  _157
REMARK   60  A    between atoms: _163  and  _164
REMARK   61  A    between atoms: _169  and  _171
REMARK   62  A    between atoms: _171  and  _172
REMARK   63  A    between atoms: _171  and  _174
REMARK   64  A    between atoms: _174  and  _175
REMARK   65  A    between atoms: _178  and  _180
REMARK   66  A    between atoms: _180  and  _181
REMARK   67  A    between atoms: _180  and  _183
REMARK   68  A    between atoms: _183  and  _184
REMARK   69  A    between atoms: _189  and  _190
REMARK   70  A    between atoms: _192  and  _194
REMARK   71  A    between atoms: _194  and  _195
REMARK   72  A    between atoms: _194  and  _197
REMARK   73  A    between atoms: _197  and  _198
REMARK   74  A    between atoms: _201  and  _203
REMARK   75  A    between atoms: _203  and  _204
REMARK   76  A    between atoms: _203  and  _206
REMARK   77  A    between atoms: _206  and  _207
REMARK   78  A    between atoms: _212  and  _214
REMARK   79  A    between atoms: _214  and  _215
REMARK   80  A    between atoms: _218  and  _220
REMARK   81  A    between atoms: _220  and  _221
REMARK   82  A    between atoms: _220  and  _223
REMARK   83  A    between atoms: _223  and  _224
REMARK   84  A    between atoms: _227  and  _229
REMARK   85  A    between atoms: _229  and  _230
REMARK   86  A    between atoms: _229  and  _232
REMARK   87  A    between atoms: _232  and  _233
REMARK   88  A    between atoms: _236  and  _238
REMARK   89  A    between atoms: _238  and  _239
REMARK   90  A    between atoms: _238  and  _241
REMARK   91  A    between atoms: _241  and  _242
REMARK   92  A    between atoms: _245  and  _247
REMARK   93  A    between atoms: _247  and  _248
REMARK   94  A    between atoms: _247  and  _250
REMARK   95  A    between atoms: _250  and  _251
REMARK   96  A    between atoms: _251  and  _252
REMARK   97  A    between atoms: _257  and  _259
REMARK   98  A    between atoms: _259  and  _260
REMARK   99  A    between atoms: _259  and  _262
REMARK  100  A    between atoms: _262  and  _263
REMARK  101  A    between atoms: _263  and  _264
REMARK  102  A    between atoms: _264  and  _265
REMARK  103  A    between atoms: _274  and  _276
REMARK  104  A    between atoms: _276  and  _277
REMARK  105  A    between atoms: _276  and  _279
REMARK  106  A    between atoms: _279  and  _280
REMARK  107  A    between atoms: _280  and  _281
REMARK  108  A    between atoms: _284  and  _286
REMARK  109  A    between atoms: _286  and  _287
REMARK  110  A    between atoms: _286  and  _289
REMARK  111  A    between atoms: _289  and  _290
REMARK  112  A    between atoms: _293  and  _295
REMARK  113  A    between atoms: _295  and  _296
REMARK  114  A    between atoms: _295  and  _298
REMARK  115  A    between atoms: _298  and  _299
REMARK  116  A    between atoms: _299  and  _300
REMARK  117  A    between atoms: _300  and  _301
REMARK  118  A    between atoms: _310  and  _312
REMARK  119  A    between atoms: _312  and  _313
REMARK  120  A    between atoms: _312  and  _315
REMARK  121  A    between atoms: _315  and  _316
REMARK  122  A    between atoms: _316  and  _317
REMARK  123  A    between atoms: _317  and  _318
REMARK  124  A    between atoms: _318  and  _319
REMARK  125  A    between atoms: _323  and  _325
REMARK  126  A    between atoms: _325  and  _326
REMARK  127  A    between atoms: _329  and  _331
REMARK  128  A    between atoms: _331  and  _332
REMARK  129  A    between atoms: _331  and  _334
REMARK  130  A    between atoms: _334  and  _335
REMARK  131  A    between atoms: _335  and  _336
REMARK  132  A    between atoms: _339  and  _341
REMARK  133  A    between atoms: _341  and  _342
REMARK  134  A    between atoms: _341  and  _344
REMARK  135  A    between atoms: _344  and  _345
REMARK  136  A    between atoms: _345  and  _346
REMARK  137  A    between atoms: _346  and  _347
REMARK  138  A    between atoms: _356  and  _358
REMARK  139  A    between atoms: _358  and  _359
REMARK  140  A    between atoms: _358  and  _361
REMARK  141  A    between atoms: _361  and  _362
REMARK  142  A    between atoms: _372  and  _374
REMARK  143  A    between atoms: _374  and  _375
REMARK  144  A    between atoms: _378  and  _379
REMARK  145  A    between atoms: _384  and  _386
REMARK  146  A    between atoms: _386  and  _387
REMARK  147  A    between atoms: _386  and  _389
REMARK  148  A    between atoms: _389  and  _390
REMARK  149  A    between atoms: _390  and  _391
REMARK  150  A    between atoms: _391  and  _392
REMARK  151  A    between atoms: _401  and  _403
REMARK  152  A    between atoms: _403  and  _404
REMARK  153  A    between atoms: _403  and  _406
REMARK  154  A    between atoms: _406  and  _407
REMARK  155  A    between atoms: _410  and  _412
REMARK  156  A    between atoms: _412  and  _413
REMARK  157  A    between atoms: _412  and  _415
REMARK  158  A    between atoms: _415  and  _416
REMARK  159  A    between atoms: _419  and  _421
REMARK  160  A    between atoms: _421  and  _422
REMARK  161  A    between atoms: _421  and  _424
REMARK  162  A    between atoms: _424  and  _425
REMARK  163  A    between atoms: _428  and  _430
REMARK  164  A    between atoms: _430  and  _431
REMARK  165  A    between atoms: _430  and  _433
REMARK  166  A    between atoms: _433  and  _434
REMARK  167  A    between atoms: _437  and  _439
REMARK  168  A    between atoms: _439  and  _440
REMARK  169  A    between atoms: _439  and  _442
REMARK  170  A    between atoms: _442  and  _443
REMARK  171  A    between atoms: _446  and  _448
REMARK  172  A    between atoms: _448  and  _449
REMARK  173  A    between atoms: _448  and  _451
REMARK  174  A    between atoms: _451  and  _452
REMARK  175  A    between atoms: _452  and  _453
REMARK  176  A    between atoms: _455  and  _457
REMARK  177  A    between atoms: _457  and  _458
REMARK  178  A    between atoms: _457  and  _460
REMARK  179  A    between atoms: _460  and  _461
REMARK  180  A    between atoms: _464  and  _466
REMARK  181  A    between atoms: _466  and  _467
REMARK  182  A    between atoms: _466  and  _469
REMARK  183  A    between atoms: _469  and  _470
REMARK  184  A    between atoms: _476  and  _478
REMARK  185  A    between atoms: _478  and  _479
REMARK  186  A    between atoms: _478  and  _481
REMARK  187  A    between atoms: _481  and  _482
REMARK  188  A    between atoms: _485  and  _487
REMARK  189  A    between atoms: _487  and  _488
REMARK  190  A    between atoms: _487  and  _490
REMARK  191  A    between atoms: _490  and  _491
REMARK  192  A    between atoms: _494  and  _496
REMARK  193  A    between atoms: _496  and  _497
REMARK  194  A    between atoms: _496  and  _499
REMARK  195  A    between atoms: _499  and  _500
REMARK  196  A    between atoms: _500  and  _501
REMARK  197  A    between atoms: _504  and  _506
REMARK  198  A    between atoms: _506  and  _507
REMARK  199  A    between atoms: _506  and  _509
REMARK  200  A    between atoms: _509  and  _510
REMARK  201  A    between atoms: _510  and  _511
REMARK  202  A    between atoms: _511  and  _512
REMARK  203  A    between atoms: _521  and  _523
REMARK  204  A    between atoms: _523  and  _524
REMARK  205  A    between atoms: _523  and  _526
REMARK  206  A    between atoms: _526  and  _527
REMARK  207  A    between atoms: _530  and  _532
REMARK  208  A    between atoms: _532  and  _533
REMARK  209  A    between atoms: _532  and  _535
REMARK  210  A    between atoms: _535  and  _536
REMARK  211  A    between atoms: _539  and  _541
REMARK  212  A    between atoms: _541  and  _542
REMARK  213  A    between atoms: _541  and  _544
REMARK  214  A    between atoms: _548  and  _549
REMARK  215  A    between atoms: _554  and  _556
REMARK  216  A    between atoms: _556  and  _557
REMARK  217  A    between atoms: _556  and  _559
REMARK  218  A    between atoms: _559  and  _560
REMARK  219  A    between atoms: _565  and  _567
REMARK  220  A    between atoms: _567  and  _568
REMARK  221  A    between atoms: _567  and  _570
REMARK  222  A    between atoms: _570  and  _571
REMARK  223  A    between atoms: _576  and  _577
REMARK  224  A    between atoms: _579  and  _581
REMARK  225  A    between atoms: _581  and  _582
REMARK  226  A    between atoms: _581  and  _584
REMARK  227  A    between atoms: _584  and  _585
REMARK  228  A    between atoms: _588  and  _590
REMARK  229  A    between atoms: _590  and  _591
REMARK  230  A    between atoms: _590  and  _593
REMARK  231  A    between atoms: _593  and  _594
REMARK  232  A    between atoms: _594  and  _595
REMARK  233  A    between atoms: _595  and  _596
REMARK  234  A    between atoms: _605  and  _607
REMARK  235  A    between atoms: _607  and  _608
REMARK  236  A    between atoms: _610  and  _612
REMARK  237  A    between atoms: _612  and  _613
REMARK  238  A    between atoms: _612  and  _615
REMARK  239  A    between atoms: _615  and  _616
REMARK  240  A    between atoms: _622  and  _624
REMARK  241  A    between atoms: _624  and  _625
REMARK  242  A    between atoms: _624  and  _627
REMARK  243  A    between atoms: _627  and  _628
REMARK  244  A    between atoms: _628  and  _629
REMARK  245  A    between atoms: _631  and  _633
REMARK  246  A    between atoms: _633  and  _634
REMARK  247  A    between atoms: _633  and  _636
REMARK  248  A    between atoms: _636  and  _637
REMARK                            x       y       z     vdW  Elec       q    Type
REMARK                         _______ _______ _______ _____ _____    ______ ____
ROOT
ATOM      1  C   ALA A   3      12.612  18.155   7.738  0.00  0.00    +0.241 C 
ATOM      2  O   ALA A   3      12.130  17.960   8.862  0.00  0.00    -0.273 OA
ATOM      3  N   ILE A   4      13.559  19.052   7.495  0.00  0.00    -0.297 N 
ATOM      4  H   ILE A   4      14.016  19.071   6.561  0.00  0.00    +0.150 HD
ENDROOT
BRANCH   1   5
ATOM      5  CA  ALA A   3      12.135  17.366   6.542  0.00  0.00    +0.149 C 
ATOM      6  CB  ALA A   3      10.813  17.909   6.069  0.00  0.00    +0.031 C 
BRANCH   5   8
ATOM      7  C   ILE A   2      13.066  15.095   6.703  0.00  0.00    +0.241 C 
ATOM      8  N   ALA A   3      12.049  15.945   6.875  0.00  0.00    -0.297 N 
ATOM      9  H   ALA A   3      11.156  15.579   7.263  0.00  0.00    +0.150 HD
ATOM     10  O   ILE A   2      14.125  15.416   6.105  0.00  0.00    -0.273 OA
BRANCH   7  11
ATOM     11  CA  ILE A   2      12.846  13.663   7.233  0.00  0.00    +0.148 C 
BRANCH  11  13
ATOM     12  C   TYR A   1      12.330  11.787   5.741  0.00  0.00    +0.239 C 
ATOM     13  N   ILE A   2      13.201  12.647   6.243  0.00  0.00    -0.297 N 
ATOM     14  H   ILE A   2      14.187  12.598   5.917  0.00  0.00    +0.150 HD
ATOM     15  O   TYR A   1      11.120  11.831   5.973  0.00  0.00    -0.274 OA
BRANCH  12  16
ATOM     16  CA  TYR A   1      12.908  10.734   4.812  0.00  0.00    +0.149 C 
BRANCH  16  17
ATOM     17  N   TYR A   1      12.636   9.381   5.290  0.00  0.00    -0.238 NA
ATOM     18  H   TYR A   1      11.681   8.985   5.175  0.00  0.00    +0.142 HD
ENDBRANCH  16  17
BRANCH  16  19
ATOM     19  CB  TYR A   1      12.367  10.948   3.396  0.00  0.00    +0.053 C 
BRANCH  19  20
ATOM     20  CG  TYR A   1      13.145  10.169   2.343  0.00  0.00    -0.020 A 
ATOM     21  CD2 TYR A   1      12.686   8.962   1.871  0.00  0.00    -0.001 A 
ATOM     22  CE2 TYR A   1      13.389   8.249   0.928  0.00  0.00    +0.036 A 
ATOM     23  CZ  TYR A   1      14.573   8.749   0.438  0.00  0.00    +0.134 A 
ATOM     24  CE1 TYR A   1      15.065   9.957   0.897  0.00  0.00    +0.036 A 
ATOM     25  CD1 TYR A   1      14.355  10.659   1.841  0.00  0.00    -0.001 A 
BRANCH  23  26
ATOM     26  OH  TYR A   1      15.232   7.997  -0.519  0.00  0.00    -0.506 OA
ATOM     27  HH  TYR A   1      16.064   8.462  -0.787  0.00  0.00    +0.292 HD
ENDBRANCH  23  26
ENDBRANCH  19  20
ENDBRANCH  16  19
ENDBRANCH  12  16
ENDBRANCH  11  13
BRANCH  11  28
ATOM     28  CB  ILE A   2      13.691  13.409   8.548  0.00  0.00    +0.027 C 
ATOM     29  CG2 ILE A   2      13.532  14.533   9.546  0.00  0.00    +0.002 C 
BRANCH  28  30
ATOM     30  CG1 ILE A   2      13.318  12.057   9.161  0.00  0.00    +0.002 C 
ATOM     31  CD1 ILE A   2      14.210  11.632  10.310  0.00  0.00    +0.000 C 
ENDBRANCH  28  30
ENDBRANCH  11  28
ENDBRANCH   7  11
ENDBRANCH   5   8
ENDBRANCH   1   5
BRANCH   3  32
ATOM     32  CA  ILE A   4      13.970  20.008   8.509  0.00  0.00    +0.149 C 
BRANCH  32  33
ATOM     33  C   ILE A   4      13.556  21.424   8.144  0.00  0.00    +0.241 C 
ATOM     34  N   GLY A   5      12.947  22.150   9.080  0.00  0.00    -0.295 N 
ATOM     35  H   GLY A   5      12.586  21.683   9.937  0.00  0.00    +0.150 HD
ATOM     36  O   ILE A   4      13.779  21.867   7.033  0.00  0.00    -0.273 OA
BRANCH  34  37
ATOM     37  CA  GLY A   5      12.780  23.581   8.922  0.00  0.00    +0.176 C 
BRANCH  37  38
ATOM     38  C   GLY A   5      13.136  24.380  10.160  0.00  0.00    +0.243 C 
ATOM     39  O   GLY A   5      12.913  23.936  11.282  0.00  0.00    -0.273 OA
ATOM     40  N   SER A   6      13.686  25.566   9.948  0.00  0.00    -0.295 N 
ATOM     41  H   SER A   6      13.977  25.821   8.983  0.00  0.00    +0.150 HD
BRANCH  40  42
ATOM     42  CA  SER A   6      13.896  26.527  11.026  0.00  0.00    +0.178 C 
BRANCH  42  43
ATOM     43  C   SER A   6      13.772  27.913  10.466  0.00  0.00    +0.243 C 
ATOM     44  N   ASN A   7      13.132  28.839  11.157  0.00  0.00    -0.298 N 
ATOM     45  H   ASN A   7      12.538  28.613  11.980  0.00  0.00    +0.150 HD
ATOM     46  O   SER A   6      14.279  28.183   9.389  0.00  0.00    -0.273 OA
BRANCH  44  47
ATOM     47  CA  ASN A   7      13.321  30.190  10.681  0.00  0.00    +0.146 C 
BRANCH  47  48
ATOM     48  C   ASN A   7      13.900  31.125  11.717  0.00  0.00    +0.227 C 
ATOM     49  O   ASN A   7      13.541  32.296  11.792  0.00  0.00    -0.286 OA
ENDBRANCH  47  48
BRANCH  47  50
ATOM     50  CB  ASN A   7      12.073  30.757   9.990  0.00  0.00    +0.112 C 
BRANCH  50  51
ATOM     51  CG  ASN A   7      11.009  31.174  10.955  0.00  0.00    +0.222 C 
ATOM     52  OD1 ASN A   7      10.884  30.600  12.033  0.00  0.00    -0.275 OA
ATOM     53  ND2 ASN A   7      10.212  32.184  10.563  0.00  0.00    -0.329 N 
ATOM     54 HD21 ASN A   7       9.446  32.513  11.185  0.00  0.00    +0.145 HD
ATOM     55 HD22 ASN A   7      10.362  32.636   9.638  0.00  0.00    +0.145 HD
ENDBRANCH  50  51
ENDBRANCH  47  50
ENDBRANCH  44  47
ENDBRANCH  42  43
BRANCH  42  56
ATOM     56  CB  SER A   6      15.294  26.368  11.653  0.00  0.00    +0.166 C 
BRANCH  56  57
ATOM     57  OG  SER A   6      15.565  27.458  12.530  0.00  0.00    -0.380 OA
ATOM     58  H   SER A   6      14.886  27.477  13.250  0.00  0.00    +0.211 HD
ENDBRANCH  56  57
ENDBRANCH  42  56
ENDBRANCH  40  42
ENDBRANCH  37  38
ENDBRANCH  34  37
ENDBRANCH  32  33
BRANCH  32  59
ATOM     59  CB  ILE A   4      15.519  19.998   8.691  0.00  0.00    +0.027 C 
ATOM     60  CG2 ILE A   4      15.899  20.919   9.841  0.00  0.00    +0.002 C 
BRANCH  59  61
ATOM     61  CG1 ILE A   4      16.013  18.600   8.914  0.00  0.00    +0.002 C 
ATOM     62  CD1 ILE A   4      17.541  18.517   8.923  0.00  0.00    +0.000 C 
ENDBRANCH  59  61
ENDBRANCH  32  59
ENDBRANCH   3  32
TORSDOF 25
REMARK  Name = ../refined-set-2016/4f7v/4f7v_pocket.pdb
REMARK  248 active torsions:
REMARK  status: ('A' for Active; 'I' for Inactive)
REMARK    1  A    between atoms: _1  and  _3
REMARK    2  A    between atoms: _3  and  _4
REMARK    3  A    between atoms: _3  and  _6
REMARK    4  A    between atoms: _6  and  _7
REMARK    5  A    between atoms: _12  and  _13
REMARK    6  A    between atoms: _15  and  _17
REMARK    7  A    between atoms: _17  and  _18
REMARK    8  A    between atoms: _17  and  _20
REMARK    9  A    between atoms: _20  and  _21
REMARK   10  A    between atoms: _24  and  _26
REMARK   11  A    between atoms: _26  and  _27
REMARK   12  A    between atoms: _30  and  _32
REMARK   13  A    between atoms: _32  and  _33
REMARK   14  A    between atoms: _32  and  _35
REMARK   15  A    between atoms: _35  and  _36
REMARK   16  A    between atoms: _39  and  _41
REMARK   17  A    between atoms: _41  and  _42
REMARK   18  A    between atoms: _44  and  _46
REMARK   19  A    between atoms: _46  and  _47
REMARK   20  A    between atoms: _46  and  _49
REMARK   21  A    between atoms: _49  and  _50
REMARK   22  A    between atoms: _52  and  _54
REMARK   23  A    between atoms: _54  and  _55
REMARK   24  A    between atoms: _54  and  _57
REMARK   25  A    between atoms: _57  and  _58
REMARK   26  A    between atoms: _63  and  _65
REMARK   27  A    between atoms: _65  and  _66
REMARK   28  A    between atoms: _65  and  _68
REMARK   29  A    between atoms: _68  and  _69
REMARK   30  A    between atoms: _74  and  _75
REMARK   31  A    between atoms: _77  and  _79
REMARK   32  A    between atoms: _79  and  _80
REMARK   33  A    between atoms: _79  and  _82
REMARK   34  A    between atoms: _82  and  _83
REMARK   35  A    between atoms: _83  and  _84
REMARK   36  A    between atoms: _84  and  _85
REMARK   37  A    between atoms: _94  and  _96
REMARK   38  A    between atoms: _96  and  _97
REMARK   39  A    between atoms: _96  and  _99
REMARK   40  A    between atoms: _99  and  _100
REMARK   41  A    between atoms: _104  and  _105
REMARK   42  A    between atoms: _111  and  _112
REMARK   43  A    between atoms: _117  and  _119
REMARK   44  A    between atoms: _119  and  _120
REMARK   45  A    between atoms: _119  and  _122
REMARK   46  A    between atoms: _122  and  _123
REMARK   47  A    between atoms: _126  and  _128
REMARK   48  A    between atoms: _128  and  _129
REMARK   49  A    between atoms: _132  and  _133
REMARK   50  A    between atoms: _138  and  _140
REMARK   51  A    between atoms: _140  and  _141
REMARK   52  A    between atoms: _140  and  _143
REMARK   53  A    between atoms: _143  and  _144
REMARK   54  A    between atoms: _144  and  _145
REMARK   55  A    between atoms: _150  and  _152
REMARK   56  A    between atoms: _152  and  _153
REMARK   57  A    between atoms: _152  and  _155
REMARK   58  A    between atoms: _155  and  _156
REMARK   59  A    between atoms: _156  and  _157
REMARK   60  A    between atoms: _163  and  _164
REMARK   61  A    between atoms: _169  and  _171
REMARK   62  A    between atoms: _171  and  _172
REMARK   63  A    between atoms: _171  and  _174
REMARK   64  A    between atoms: _174  and  _175
REMARK   65  A    between atoms: _178  and  _180
REMARK   66  A    between atoms: _180  and  _181
REMARK   67  A    between atoms: _180  and  _183
REMARK   68  A    between atoms: _183  and  _184
REMARK   69  A    between atoms: _189  and  _190
REMARK   70  A    between atoms: _192  and  _194
REMARK   71  A    between atoms: _194  and  _195
REMARK   72  A    between atoms: _194  and  _197
REMARK   73  A    between atoms: _197  and  _198
REMARK   74  A    between atoms: _201  and  _203
REMARK   75  A    between atoms: _203  and  _204
REMARK   76  A    between atoms: _203  and  _206
REMARK   77  A    between atoms: _206  and  _207
REMARK   78  A    between atoms: _212  and  _214
REMARK   79  A    between atoms: _214  and  _215
REMARK   80  A    between atoms: _218  and  _220
REMARK   81  A    between atoms: _220  and  _221
REMARK   82  A    between atoms: _220  and  _223
REMARK   83  A    between atoms: _223  and  _224
REMARK   84  A    between atoms: _227  and  _229
REMARK   85  A    between atoms: _229  and  _230
REMARK   86  A    between atoms: _229  and  _232
REMARK   87  A    between atoms: _232  and  _233
REMARK   88  A    between atoms: _236  and  _238
REMARK   89  A    between atoms: _238  and  _239
REMARK   90  A    between atoms: _238  and  _241
REMARK   91  A    between atoms: _241  and  _242
REMARK   92  A    between atoms: _245  and  _247
REMARK   93  A    between atoms: _247  and  _248
REMARK   94  A    between atoms: _247  and  _250
REMARK   95  A    between atoms: _250  and  _251
REMARK   96  A    between atoms: _251  and  _252
REMARK   97  A    between atoms: _257  and  _259
REMARK   98  A    between atoms: _259  and  _260
REMARK   99  A    between atoms: _259  and  _262
REMARK  100  A    between atoms: _262  and  _263
REMARK  101  A    between atoms: _263  and  _264
REMARK  102  A    between atoms: _264  and  _265
REMARK  103  A    between atoms: _274  and  _276
REMARK  104  A    between atoms: _276  and  _277
REMARK  105  A    between atoms: _276  and  _279
REMARK  106  A    between atoms: _279  and  _280
REMARK  107  A    between atoms: _280  and  _281
REMARK  108  A    between atoms: _284  and  _286
REMARK  109  A    between atoms: _286  and  _287
REMARK  110  A    between atoms: _286  and  _289
REMARK  111  A    between atoms: _289  and  _290
REMARK  112  A    between atoms: _293  and  _295
REMARK  113  A    between atoms: _295  and  _296
REMARK  114  A    between atoms: _295  and  _298
REMARK  115  A    between atoms: _298  and  _299
REMARK  116  A    between atoms: _299  and  _300
REMARK  117  A    between atoms: _300  and  _301
REMARK  118  A    between atoms: _310  and  _312
REMARK  119  A    between atoms: _312  and  _313
REMARK  120  A    between atoms: _312  and  _315
REMARK  121  A    between atoms: _315  and  _316
REMARK  122  A    between atoms: _316  and  _317
REMARK  123  A    between atoms: _317  and  _318
REMARK  124  A    between atoms: _318  and  _319
REMARK  125  A    between atoms: _323  and  _325
REMARK  126  A    between atoms: _325  and  _326
REMARK  127  A    between atoms: _329  and  _331
REMARK  128  A    between atoms: _331  and  _332
REMARK  129  A    between atoms: _331  and  _334
REMARK  130  A    between atoms: _334  and  _335
REMARK  131  A    between atoms: _335  and  _336
REMARK  132  A    between atoms: _339  and  _341
REMARK  133  A    between atoms: _341  and  _342
REMARK  134  A    between atoms: _341  and  _344
REMARK  135  A    between atoms: _344  and  _345
REMARK  136  A    between atoms: _345  and  _346
REMARK  137  A    between atoms: _346  and  _347
REMARK  138  A    between atoms: _356  and  _358
REMARK  139  A    between atoms: _358  and  _359
REMARK  140  A    between atoms: _358  and  _361
REMARK  141  A    between atoms: _361  and  _362
REMARK  142  A    between atoms: _372  and  _374
REMARK  143  A    between atoms: _374  and  _375
REMARK  144  A    between atoms: _378  and  _379
REMARK  145  A    between atoms: _384  and  _386
REMARK  146  A    between atoms: _386  and  _387
REMARK  147  A    between atoms: _386  and  _389
REMARK  148  A    between atoms: _389  and  _390
REMARK  149  A    between atoms: _390  and  _391
REMARK  150  A    between atoms: _391  and  _392
REMARK  151  A    between atoms: _401  and  _403
REMARK  152  A    between atoms: _403  and  _404
REMARK  153  A    between atoms: _403  and  _406
REMARK  154  A    between atoms: _406  and  _407
REMARK  155  A    between atoms: _410  and  _412
REMARK  156  A    between atoms: _412  and  _413
REMARK  157  A    between atoms: _412  and  _415
REMARK  158  A    between atoms: _415  and  _416
REMARK  159  A    between atoms: _419  and  _421
REMARK  160  A    between atoms: _421  and  _422
REMARK  161  A    between atoms: _421  and  _424
REMARK  162  A    between atoms: _424  and  _425
REMARK  163  A    between atoms: _428  and  _430
REMARK  164  A    between atoms: _430  and  _431
REMARK  165  A    between atoms: _430  and  _433
REMARK  166  A    between atoms: _433  and  _434
REMARK  167  A    between atoms: _437  and  _439
REMARK  168  A    between atoms: _439  and  _440
REMARK  169  A    between atoms: _439  and  _442
REMARK  170  A    between atoms: _442  and  _443
REMARK  171  A    between atoms: _446  and  _448
REMARK  172  A    between atoms: _448  and  _449
REMARK  173  A    between atoms: _448  and  _451
REMARK  174  A    between atoms: _451  and  _452
REMARK  175  A    between atoms: _452  and  _453
REMARK  176  A    between atoms: _455  and  _457
REMARK  177  A    between atoms: _457  and  _458
REMARK  178  A    between atoms: _457  and  _460
REMARK  179  A    between atoms: _460  and  _461
REMARK  180  A    between atoms: _464  and  _466
REMARK  181  A    between atoms: _466  and  _467
REMARK  182  A    between atoms: _466  and  _469
REMARK  183  A    between atoms: _469  and  _470
REMARK  184  A    between atoms: _476  and  _478
REMARK  185  A    between atoms: _478  and  _479
REMARK  186  A    between atoms: _478  and  _481
REMARK  187  A    between atoms: _481  and  _482
REMARK  188  A    between atoms: _485  and  _487
REMARK  189  A    between atoms: _487  and  _488
REMARK  190  A    between atoms: _487  and  _490
REMARK  191  A    between atoms: _490  and  _491
REMARK  192  A    between atoms: _494  and  _496
REMARK  193  A    between atoms: _496  and  _497
REMARK  194  A    between atoms: _496  and  _499
REMARK  195  A    between atoms: _499  and  _500
REMARK  196  A    between atoms: _500  and  _501
REMARK  197  A    between atoms: _504  and  _506
REMARK  198  A    between atoms: _506  and  _507
REMARK  199  A    between atoms: _506  and  _509
REMARK  200  A    between atoms: _509  and  _510
REMARK  201  A    between atoms: _510  and  _511
REMARK  202  A    between atoms: _511  and  _512
REMARK  203  A    between atoms: _521  and  _523
REMARK  204  A    between atoms: _523  and  _524
REMARK  205  A    between atoms: _523  and  _526
REMARK  206  A    between atoms: _526  and  _527
REMARK  207  A    between atoms: _530  and  _532
REMARK  208  A    between atoms: _532  and  _533
REMARK  209  A    between atoms: _532  and  _535
REMARK  210  A    between atoms: _535  and  _536
REMARK  211  A    between atoms: _539  and  _541
REMARK  212  A    between atoms: _541  and  _542
REMARK  213  A    between atoms: _541  and  _544
REMARK  214  A    between atoms: _548  and  _549
REMARK  215  A    between atoms: _554  and  _556
REMARK  216  A    between atoms: _556  and  _557
REMARK  217  A    between atoms: _556  and  _559
REMARK  218  A    between atoms: _559  and  _560
REMARK  219  A    between atoms: _565  and  _567
REMARK  220  A    between atoms: _567  and  _568
REMARK  221  A    between atoms: _567  and  _570
REMARK  222  A    between atoms: _570  and  _571
REMARK  223  A    between atoms: _576  and  _577
REMARK  224  A    between atoms: _579  and  _581
REMARK  225  A    between atoms: _581  and  _582
REMARK  226  A    between atoms: _581  and  _584
REMARK  227  A    between atoms: _584  and  _585
REMARK  228  A    between atoms: _588  and  _590
REMARK  229  A    between atoms: _590  and  _591
REMARK  230  A    between atoms: _590  and  _593
REMARK  231  A    between atoms: _593  and  _594
REMARK  232  A    between atoms: _594  and  _595
REMARK  233  A    between atoms: _595  and  _596
REMARK  234  A    between atoms: _605  and  _607
REMARK  235  A    between atoms: _607  and  _608
REMARK  236  A    between atoms: _610  and  _612
REMARK  237  A    between atoms: _612  and  _613
REMARK  238  A    between atoms: _612  and  _615
REMARK  239  A    between atoms: _615  and  _616
REMARK  240  A    between atoms: _622  and  _624
REMARK  241  A    between atoms: _624  and  _625
REMARK  242  A    between atoms: _624  and  _627
REMARK  243  A    between atoms: _627  and  _628
REMARK  244  A    between atoms: _628  and  _629
REMARK  245  A    between atoms: _631  and  _633
REMARK  246  A    between atoms: _633  and  _634
REMARK  247  A    between atoms: _633  and  _636
REMARK  248  A    between atoms: _636  and  _637
REMARK                            x       y       z     vdW  Elec       q    Type
REMARK                         _______ _______ _______ _____ _____    ______ ____
ROOT
ATOM      1  C   THR A   3      11.457  30.720   2.126  0.00  0.00    +0.246 C 
ATOM      2  O   THR A   3      11.575  30.982   3.327  0.00  0.00    -0.273 OA
ATOM      3  N   PRO A   4      10.587  31.360   1.340  0.00  0.00    -0.272 N 
ATOM      4  CA  PRO A   4       9.700  32.373   1.915  0.00  0.00    +0.152 C 
ATOM      5  CB  PRO A   4       8.999  32.972   0.695  0.00  0.00    +0.031 C 
ATOM      6  CG  PRO A   4       9.349  32.102  -0.479  0.00  0.00    +0.024 C 
ATOM      7  CD  PRO A   4      10.164  30.939  -0.004  0.00  0.00    +0.094 C 
ENDROOT
BRANCH   4   8
ATOM      8  C   PRO A   4       8.679  31.723   2.842  0.00  0.00    +0.244 C 
ATOM      9  N   PRO A   5       8.315  32.404   3.937  0.00  0.00    -0.272 N 
ATOM     10  CA  PRO A   5       7.379  31.821   4.912  0.00  0.00    +0.152 C 
ATOM     11  CB  PRO A   5       7.148  32.963   5.918  0.00  0.00    +0.031 C 
ATOM     12  CG  PRO A   5       8.288  33.908   5.719  0.00  0.00    +0.024 C 
ATOM     13  CD  PRO A   5       8.669  33.794   4.272  0.00  0.00    +0.094 C 
ATOM     14  O   PRO A   4       8.227  30.604   2.548  0.00  0.00    -0.273 OA
BRANCH  10  15
ATOM     15  C   PRO A   5       6.060  31.419   4.274  0.00  0.00    +0.241 C 
ATOM     16  N   LEU A   6       5.618  30.192   4.538  0.00  0.00    -0.297 N 
ATOM     17  H   LEU A   6       6.280  29.473   4.893  0.00  0.00    +0.150 HD
ATOM     18  O   PRO A   5       5.484  32.199   3.514  0.00  0.00    -0.273 OA
BRANCH  16  19
ATOM     19  CA  LEU A   6       4.221  29.843   4.336  0.00  0.00    +0.149 C 
BRANCH  19  20
ATOM     20  C   LEU A   6       3.504  30.386   5.567  0.00  0.00    +0.241 C 
ATOM     21  O   LEU A   6       3.678  29.870   6.676  0.00  0.00    -0.273 OA
ATOM     22  N   GLY A   7       2.738  31.455   5.372  0.00  0.00    -0.295 N 
ATOM     23  H   GLY A   7       2.501  31.734   4.398  0.00  0.00    +0.150 HD
BRANCH  22  24
ATOM     24  CA  GLY A   7       2.221  32.247   6.476  0.00  0.00    +0.176 C 
BRANCH  24  25
ATOM     25  C   GLY A   7       2.621  33.708   6.317  0.00  0.00    +0.246 C 
ATOM     26  N   PRO A   8       2.570  34.477   7.420  0.00  0.00    -0.272 N 
ATOM     27  CD  PRO A   8       2.210  34.014   8.772  0.00  0.00    +0.094 C 
ATOM     28  CG  PRO A   8       2.007  35.287   9.531  0.00  0.00    +0.024 C 
ATOM     29  CB  PRO A   8       2.847  36.316   8.870  0.00  0.00    +0.031 C 
ATOM     30  CA  PRO A   8       2.887  35.911   7.392  0.00  0.00    +0.152 C 
ATOM     31  O   GLY A   7       2.980  34.141   5.214  0.00  0.00    -0.273 OA
BRANCH  30  32
ATOM     32  C   PRO A   8       4.267  36.171   6.816  0.00  0.00    +0.241 C 
ATOM     33  O   PRO A   8       5.261  35.615   7.292  0.00  0.00    -0.273 OA
ATOM     34  N   GLN A   9       4.321  37.023   5.798  0.00  0.00    -0.298 N 
ATOM     35  H   GLN A   9       3.457  37.521   5.504  0.00  0.00    +0.150 HD
BRANCH  34  36
ATOM     36  CA  GLN A   9       5.565  37.273   5.086  0.00  0.00    +0.137 C 
BRANCH  36  37
ATOM     37  C   GLN A   9       6.606  37.998   5.944  0.00  0.00    +0.227 C 
ATOM     38  O   GLN A   9       7.791  38.019   5.598  0.00  0.00    -0.286 OA
ENDBRANCH  36  37
BRANCH  36  39
ATOM     39  CB  GLN A   9       5.292  38.065   3.796  0.00  0.00    +0.037 C 
BRANCH  39  40
ATOM     40  CG  GLN A   9       4.833  37.209   2.619  0.00  0.00    +0.087 C 
BRANCH  40  41
ATOM     41  CD  GLN A   9       5.734  36.003   2.388  0.00  0.00    +0.219 C 
ATOM     42  NE2 GLN A   9       5.149  34.811   2.442  0.00  0.00    -0.329 N 
ATOM     43 HE21 GLN A   9       4.127  34.741   2.623  0.00  0.00    +0.145 HD
ATOM     44 HE22 GLN A   9       5.713  33.948   2.303  0.00  0.00    +0.145 HD
ATOM     45  OE1 GLN A   9       6.945  36.143   2.176  0.00  0.00    -0.275 OA
ENDBRANCH  40  41
ENDBRANCH  39  40
ENDBRANCH  36  39
ENDBRANCH  34  36
ENDBRANCH  30  32
ENDBRANCH  24  25
ENDBRANCH  22  24
ENDBRANCH  19  20
BRANCH  19  46
ATOM     46  CB  LEU A   6       4.026  28.340   4.190  0.00  0.00    +0.029 C 
BRANCH  46  47
ATOM     47  CG  LEU A   6       2.553  27.948   4.178  0.00  0.00    +0.002 C 
ATOM     48  CD2 LEU A   6       2.404  26.466   3.914  0.00  0.00    +0.000 C 
ATOM     49  CD1 LEU A   6       1.807  28.767   3.132  0.00  0.00    +0.000 C 
ENDBRANCH  46  47
ENDBRANCH  19  46
ENDBRANCH  16  19
ENDBRANCH  10  15
ENDBRANCH   4   8
BRANCH   1  50
ATOM     50  CA  THR A   3      12.311  29.650   1.456  0.00  0.00    +0.176 C 
BRANCH  50  52
ATOM     51  C   ARG A   2      14.717  29.850   1.205  0.00  0.00    +0.241 C 
ATOM     52  N   THR A   3      13.662  29.683   1.999  0.00  0.00    -0.295 N 
ATOM     53  H   THR A   3      13.805  29.574   3.023  0.00  0.00    +0.150 HD
ATOM     54  O   ARG A   2      14.628  30.154   0.014  0.00  0.00    -0.273 OA
BRANCH  51  55
ATOM     55  CA  ARG A   2      16.084  29.622   1.833  0.00  0.00    +0.149 C 
BRANCH  55  58
ATOM     56  C   TYR A   1      16.681  27.280   1.782  0.00  0.00    +0.239 C 
ATOM     57  O   TYR A   1      16.266  27.106   2.922  0.00  0.00    -0.274 OA
ATOM     58  N   ARG A   2      16.629  28.458   1.185  0.00  0.00    -0.297 N 
ATOM     59  H   ARG A   2      16.994  28.547   0.215  0.00  0.00    +0.150 HD
BRANCH  56  60
ATOM     60  CA  TYR A   1      17.269  26.134   0.958  0.00  0.00    +0.149 C 
BRANCH  60  61
ATOM     61  N   TYR A   1      18.044  25.162   1.740  0.00  0.00    -0.238 NA
ATOM     62  H   TYR A   1      17.552  24.594   2.459  0.00  0.00    +0.142 HD
ENDBRANCH  60  61
BRANCH  60  63
ATOM     63  CB  TYR A   1      16.148  25.409   0.177  0.00  0.00    +0.053 C 
BRANCH  63  64
ATOM     64  CG  TYR A   1      16.653  24.387  -0.810  0.00  0.00    -0.020 A 
ATOM     65  CD2 TYR A   1      16.817  23.053  -0.451  0.00  0.00    -0.001 A 
ATOM     66  CE2 TYR A   1      17.297  22.117  -1.358  0.00  0.00    +0.036 A 
ATOM     67  CZ  TYR A   1      17.627  22.545  -2.649  0.00  0.00    +0.134 A 
ATOM     68  CE1 TYR A   1      17.481  23.859  -2.995  0.00  0.00    +0.036 A 
ATOM     69  CD1 TYR A   1      17.006  24.763  -2.097  0.00  0.00    -0.001 A 
BRANCH  67  70
ATOM     70  OH  TYR A   1      18.105  21.641  -3.568  0.00  0.00    -0.506 OA
ATOM     71  HH  TYR A   1      18.941  21.236  -3.227  0.00  0.00    +0.292 HD
ENDBRANCH  67  70
ENDBRANCH  63  64
ENDBRANCH  60  63
ENDBRANCH  56  60
ENDBRANCH  55  58
BRANCH  55  72
ATOM     72  CB  ARG A   2      16.977  30.834   1.582  0.00  0.00    +0.033 C 
BRANCH  72  73
ATOM     73  CG  ARG A   2      16.504  32.114   2.224  0.00  0.00    +0.045 C 
BRANCH  73  74
ATOM     74  CD  ARG A   2      17.333  33.328   1.731  0.00  0.00    +0.174 C 
BRANCH  74  75
ATOM     75  NE  ARG A   2      18.748  33.078   1.938  0.00  0.00    -0.265 N 
ATOM     76  CZ  ARG A   2      19.385  33.294   3.084  0.00  0.00    +0.342 C 
ATOM     77  NH2 ARG A   2      18.741  33.808   4.123  0.00  0.00    -0.292 N 
ATOM     78 HH21 ARG A   2      19.246  33.975   5.017  0.00  0.00    +0.255 HD
ATOM     79 HH22 ARG A   2      17.731  34.045   4.044  0.00  0.00    +0.255 HD
ATOM     80  NH1 ARG A   2      20.670  32.993   3.191  0.00  0.00    -0.292 N 
ATOM     81 HH11 ARG A   2      21.171  33.161   4.087  0.00  0.00    +0.255 HD
ATOM     82 HH12 ARG A   2      21.179  32.588   2.379  0.00  0.00    +0.255 HD
ATOM     83  HE  ARG A   2      19.299  32.706   1.138  0.00  0.00    +0.259 HD
ENDBRANCH  74  75
ENDBRANCH  73  74
ENDBRANCH  72  73
ENDBRANCH  55  72
ENDBRANCH  51  55
ENDBRANCH  50  52
BRANCH  50  84
ATOM     84  CB  THR A   3      11.654  28.239   1.585  0.00  0.00    +0.137 C 
ATOM     85  CG2 THR A   3      12.528  27.150   0.982  0.00  0.00    +0.034 C 
BRANCH  84  86
ATOM     86  OG1 THR A   3      11.437  27.913   2.962  0.00  0.00    -0.382 OA
ATOM     87  HG1 THR A   3      11.021  27.017   3.026  0.00  0.00    +0.210 HD
ENDBRANCH  84  86
ENDBRANCH  50  84
ENDBRANCH   1  50
TORSDOF 29
REMARK  Name = ../refined-set-2016/4f7v/4f7v_pocket.pdb
REMARK  248 active torsions:
REMARK  status: ('A' for Active; 'I' for Inactive)
REMARK    1  A    between atoms: _1  and  _3
REMARK    2  A    between atoms: _3  and  _4
REMARK    3  A    between atoms: _3  and  _6
REMARK    4  A    between atoms: _6  and  _7
REMARK    5  A    between atoms: _12  and  _13
REMARK    6  A    between atoms: _15  and  _17
REMARK    7  A    between atoms: _17  and  _18
REMARK    8  A    between atoms: _17  and  _20
REMARK    9  A    between atoms: _20  and  _21
REMARK   10  A    between atoms: _24  and  _26
REMARK   11  A    between atoms: _26  and  _27
REMARK   12  A    between atoms: _30  and  _32
REMARK   13  A    between atoms: _32  and  _33
REMARK   14  A    between atoms: _32  and  _35
REMARK   15  A    between atoms: _35  and  _36
REMARK   16  A    between atoms: _39  and  _41
REMARK   17  A    between atoms: _41  and  _42
REMARK   18  A    between atoms: _44  and  _46
REMARK   19  A    between atoms: _46  and  _47
REMARK   20  A    between atoms: _46  and  _49
REMARK   21  A    between atoms: _49  and  _50
REMARK   22  A    between atoms: _52  and  _54
REMARK   23  A    between atoms: _54  and  _55
REMARK   24  A    between atoms: _54  and  _57
REMARK   25  A    between atoms: _57  and  _58
REMARK   26  A    between atoms: _63  and  _65
REMARK   27  A    between atoms: _65  and  _66
REMARK   28  A    between atoms: _65  and  _68
REMARK   29  A    between atoms: _68  and  _69
REMARK   30  A    between atoms: _74  and  _75
REMARK   31  A    between atoms: _77  and  _79
REMARK   32  A    between atoms: _79  and  _80
REMARK   33  A    between atoms: _79  and  _82
REMARK   34  A    between atoms: _82  and  _83
REMARK   35  A    between atoms: _83  and  _84
REMARK   36  A    between atoms: _84  and  _85
REMARK   37  A    between atoms: _94  and  _96
REMARK   38  A    between atoms: _96  and  _97
REMARK   39  A    between atoms: _96  and  _99
REMARK   40  A    between atoms: _99  and  _100
REMARK   41  A    between atoms: _104  and  _105
REMARK   42  A    between atoms: _111  and  _112
REMARK   43  A    between atoms: _117  and  _119
REMARK   44  A    between atoms: _119  and  _120
REMARK   45  A    between atoms: _119  and  _122
REMARK   46  A    between atoms: _122  and  _123
REMARK   47  A    between atoms: _126  and  _128
REMARK   48  A    between atoms: _128  and  _129
REMARK   49  A    between atoms: _132  and  _133
REMARK   50  A    between atoms: _138  and  _140
REMARK   51  A    between atoms: _140  and  _141
REMARK   52  A    between atoms: _140  and  _143
REMARK   53  A    between atoms: _143  and  _144
REMARK   54  A    between atoms: _144  and  _145
REMARK   55  A    between atoms: _150  and  _152
REMARK   56  A    between atoms: _152  and  _153
REMARK   57  A    between atoms: _152  and  _155
REMARK   58  A    between atoms: _155  and  _156
REMARK   59  A    between atoms: _156  and  _157
REMARK   60  A    between atoms: _163  and  _164
REMARK   61  A    between atoms: _169  and  _171
REMARK   62  A    between atoms: _171  and  _172
REMARK   63  A    between atoms: _171  and  _174
REMARK   64  A    between atoms: _174  and  _175
REMARK   65  A    between atoms: _178  and  _180
REMARK   66  A    between atoms: _180  and  _181
REMARK   67  A    between atoms: _180  and  _183
REMARK   68  A    between atoms: _183  and  _184
REMARK   69  A    between atoms: _189  and  _190
REMARK   70  A    between atoms: _192  and  _194
REMARK   71  A    between atoms: _194  and  _195
REMARK   72  A    between atoms: _194  and  _197
REMARK   73  A    between atoms: _197  and  _198
REMARK   74  A    between atoms: _201  and  _203
REMARK   75  A    between atoms: _203  and  _204
REMARK   76  A    between atoms: _203  and  _206
REMARK   77  A    between atoms: _206  and  _207
REMARK   78  A    between atoms: _212  and  _214
REMARK   79  A    between atoms: _214  and  _215
REMARK   80  A    between atoms: _218  and  _220
REMARK   81  A    between atoms: _220  and  _221
REMARK   82  A    between atoms: _220  and  _223
REMARK   83  A    between atoms: _223  and  _224
REMARK   84  A    between atoms: _227  and  _229
REMARK   85  A    between atoms: _229  and  _230
REMARK   86  A    between atoms: _229  and  _232
REMARK   87  A    between atoms: _232  and  _233
REMARK   88  A    between atoms: _236  and  _238
REMARK   89  A    between atoms: _238  and  _239
REMARK   90  A    between atoms: _238  and  _241
REMARK   91  A    between atoms: _241  and  _242
REMARK   92  A    between atoms: _245  and  _247
REMARK   93  A    between atoms: _247  and  _248
REMARK   94  A    between atoms: _247  and  _250
REMARK   95  A    between atoms: _250  and  _251
REMARK   96  A    between atoms: _251  and  _252
REMARK   97  A    between atoms: _257  and  _259
REMARK   98  A    between atoms: _259  and  _260
REMARK   99  A    between atoms: _259  and  _262
REMARK  100  A    between atoms: _262  and  _263
REMARK  101  A    between atoms: _263  and  _264
REMARK  102  A    between atoms: _264  and  _265
REMARK  103  A    between atoms: _274  and  _276
REMARK  104  A    between atoms: _276  and  _277
REMARK  105  A    between atoms: _276  and  _279
REMARK  106  A    between atoms: _279  and  _280
REMARK  107  A    between atoms: _280  and  _281
REMARK  108  A    between atoms: _284  and  _286
REMARK  109  A    between atoms: _286  and  _287
REMARK  110  A    between atoms: _286  and  _289
REMARK  111  A    between atoms: _289  and  _290
REMARK  112  A    between atoms: _293  and  _295
REMARK  113  A    between atoms: _295  and  _296
REMARK  114  A    between atoms: _295  and  _298
REMARK  115  A    between atoms: _298  and  _299
REMARK  116  A    between atoms: _299  and  _300
REMARK  117  A    between atoms: _300  and  _301
REMARK  118  A    between atoms: _310  and  _312
REMARK  119  A    between atoms: _312  and  _313
REMARK  120  A    between atoms: _312  and  _315
REMARK  121  A    between atoms: _315  and  _316
REMARK  122  A    between atoms: _316  and  _317
REMARK  123  A    between atoms: _317  and  _318
REMARK  124  A    between atoms: _318  and  _319
REMARK  125  A    between atoms: _323  and  _325
REMARK  126  A    between atoms: _325  and  _326
REMARK  127  A    between atoms: _329  and  _331
REMARK  128  A    between atoms: _331  and  _332
REMARK  129  A    between atoms: _331  and  _334
REMARK  130  A    between atoms: _334  and  _335
REMARK  131  A    between atoms: _335  and  _336
REMARK  132  A    between atoms: _339  and  _341
REMARK  133  A    between atoms: _341  and  _342
REMARK  134  A    between atoms: _341  and  _344
REMARK  135  A    between atoms: _344  and  _345
REMARK  136  A    between atoms: _345  and  _346
REMARK  137  A    between atoms: _346  and  _347
REMARK  138  A    between atoms: _356  and  _358
REMARK  139  A    between atoms: _358  and  _359
REMARK  140  A    between atoms: _358  and  _361
REMARK  141  A    between atoms: _361  and  _362
REMARK  142  A    between atoms: _372  and  _374
REMARK  143  A    between atoms: _374  and  _375
REMARK  144  A    between atoms: _378  and  _379
REMARK  145  A    between atoms: _384  and  _386
REMARK  146  A    between atoms: _386  and  _387
REMARK  147  A    between atoms: _386  and  _389
REMARK  148  A    between atoms: _389  and  _390
REMARK  149  A    between atoms: _390  and  _391
REMARK  150  A    between atoms: _391  and  _392
REMARK  151  A    between atoms: _401  and  _403
REMARK  152  A    between atoms: _403  and  _404
REMARK  153  A    between atoms: _403  and  _406
REMARK  154  A    between atoms: _406  and  _407
REMARK  155  A    between atoms: _410  and  _412
REMARK  156  A    between atoms: _412  and  _413
REMARK  157  A    between atoms: _412  and  _415
REMARK  158  A    between atoms: _415  and  _416
REMARK  159  A    between atoms: _419  and  _421
REMARK  160  A    between atoms: _421  and  _422
REMARK  161  A    between atoms: _421  and  _424
REMARK  162  A    between atoms: _424  and  _425
REMARK  163  A    between atoms: _428  and  _430
REMARK  164  A    between atoms: _430  and  _431
REMARK  165  A    between atoms: _430  and  _433
REMARK  166  A    between atoms: _433  and  _434
REMARK  167  A    between atoms: _437  and  _439
REMARK  168  A    between atoms: _439  and  _440
REMARK  169  A    between atoms: _439  and  _442
REMARK  170  A    between atoms: _442  and  _443
REMARK  171  A    between atoms: _446  and  _448
REMARK  172  A    between atoms: _448  and  _449
REMARK  173  A    between atoms: _448  and  _451
REMARK  174  A    between atoms: _451  and  _452
REMARK  175  A    between atoms: _452  and  _453
REMARK  176  A    between atoms: _455  and  _457
REMARK  177  A    between atoms: _457  and  _458
REMARK  178  A    between atoms: _457  and  _460
REMARK  179  A    between atoms: _460  and  _461
REMARK  180  A    between atoms: _464  and  _466
REMARK  181  A    between atoms: _466  and  _467
REMARK  182  A    between atoms: _466  and  _469
REMARK  183  A    between atoms: _469  and  _470
REMARK  184  A    between atoms: _476  and  _478
REMARK  185  A    between atoms: _478  and  _479
REMARK  186  A    between atoms: _478  and  _481
REMARK  187  A    between atoms: _481  and  _482
REMARK  188  A    between atoms: _485  and  _487
REMARK  189  A    between atoms: _487  and  _488
REMARK  190  A    between atoms: _487  and  _490
REMARK  191  A    between atoms: _490  and  _491
REMARK  192  A    between atoms: _494  and  _496
REMARK  193  A    between atoms: _496  and  _497
REMARK  194  A    between atoms: _496  and  _499
REMARK  195  A    between atoms: _499  and  _500
REMARK  196  A    between atoms: _500  and  _501
REMARK  197  A    between atoms: _504  and  _506
REMARK  198  A    between atoms: _506  and  _507
REMARK  199  A    between atoms: _506  and  _509
REMARK  200  A    between atoms: _509  and  _510
REMARK  201  A    between atoms: _510  and  _511
REMARK  202  A    between atoms: _511  and  _512
REMARK  203  A    between atoms: _521  and  _523
REMARK  204  A    between atoms: _523  and  _524
REMARK  205  A    between atoms: _523  and  _526
REMARK  206  A    between atoms: _526  and  _527
REMARK  207  A    between atoms: _530  and  _532
REMARK  208  A    between atoms: _532  and  _533
REMARK  209  A    between atoms: _532  and  _535
REMARK  210  A    between atoms: _535  and  _536
REMARK  211  A    between atoms: _539  and  _541
REMARK  212  A    between atoms: _541  and  _542
REMARK  213  A    between atoms: _541  and  _544
REMARK  214  A    between atoms: _548  and  _549
REMARK  215  A    between atoms: _554  and  _556
REMARK  216  A    between atoms: _556  and  _557
REMARK  217  A    between atoms: _556  and  _559
REMARK  218  A    between atoms: _559  and  _560
REMARK  219  A    between atoms: _565  and  _567
REMARK  220  A    between atoms: _567  and  _568
REMARK  221  A    between atoms: _567  and  _570
REMARK  222  A    between atoms: _570  and  _571
REMARK  223  A    between atoms: _576  and  _577
REMARK  224  A    between atoms: _579  and  _581
REMARK  225  A    between atoms: _581  and  _582
REMARK  226  A    between atoms: _581  and  _584
REMARK  227  A    between atoms: _584  and  _585
REMARK  228  A    between atoms: _588  and  _590
REMARK  229  A    between atoms: _590  and  _591
REMARK  230  A    between atoms: _590  and  _593
REMARK  231  A    between atoms: _593  and  _594
REMARK  232  A    between atoms: _594  and  _595
REMARK  233  A    between atoms: _595  and  _596
REMARK  234  A    between atoms: _605  and  _607
REMARK  235  A    between atoms: _607  and  _608
REMARK  236  A    between atoms: _610  and  _612
REMARK  237  A    between atoms: _612  and  _613
REMARK  238  A    between atoms: _612  and  _615
REMARK  239  A    between atoms: _615  and  _616
REMARK  240  A    between atoms: _622  and  _624
REMARK  241  A    between atoms: _624  and  _625
REMARK  242  A    between atoms: _624  and  _627
REMARK  243  A    between atoms: _627  and  _628
REMARK  244  A    between atoms: _628  and  _629
REMARK  245  A    between atoms: _631  and  _633
REMARK  246  A    between atoms: _633  and  _634
REMARK  247  A    between atoms: _633  and  _636
REMARK  248  A    between atoms: _636  and  _637
REMARK                            x       y       z     vdW  Elec       q    Type
REMARK                         _______ _______ _______ _____ _____    ______ ____
ROOT
ATOM      1  CA  TYR A   4      13.046  29.438   6.654  0.00  0.00    +0.153 C 
ENDROOT
BRANCH   1   4
ATOM      2  C   ASP A   3      13.243  31.849   6.491  0.00  0.00    +0.241 C 
ATOM      3  O   ASP A   3      14.037  31.911   7.452  0.00  0.00    -0.273 OA
ATOM      4  N   TYR A   4      12.698  30.714   6.065  0.00  0.00    -0.297 N 
ATOM      5  H   TYR A   4      12.005  30.743   5.290  0.00  0.00    +0.150 HD
BRANCH   2   6
ATOM      6  CA  ASP A   3      12.816  33.107   5.735  0.00  0.00    +0.160 C 
BRANCH   6   9
ATOM      7  C   PRO A   2      12.154  34.408   7.666  0.00  0.00    +0.241 C 
ATOM      8  O   PRO A   2      11.184  33.668   7.903  0.00  0.00    -0.273 OA
ATOM      9  N   ASP A   3      12.925  34.267   6.600  0.00  0.00    -0.297 N 
ATOM     10  H   ASP A   3      13.624  35.004   6.377  0.00  0.00    +0.150 HD
BRANCH   7  16
ATOM     11  C   GLN A   1      10.358  36.446   8.789  0.00  0.00    +0.241 C 
ATOM     12  N   PRO A   2      11.392  35.923   9.451  0.00  0.00    -0.272 N 
ATOM     13  CD  PRO A   2      11.624  35.605  10.873  0.00  0.00    +0.094 C 
ATOM     14  CG  PRO A   2      13.118  35.592  10.979  0.00  0.00    +0.024 C 
ATOM     15  CB  PRO A   2      13.625  35.164   9.589  0.00  0.00    +0.031 C 
ATOM     16  CA  PRO A   2      12.524  35.571   8.591  0.00  0.00    +0.152 C 
ATOM     17  O   GLN A   1      10.379  36.617   7.566  0.00  0.00    -0.273 OA
BRANCH  11  18
ATOM     18  CA  GLN A   1       9.142  36.840   9.605  0.00  0.00    +0.145 C 
BRANCH  18  19
ATOM     19  N   GLN A   1       8.244  37.525   8.696  0.00  0.00    -0.238 NA
ATOM     20  H   GLN A   1       7.975  37.066   7.803  0.00  0.00    +0.142 HD
ENDBRANCH  18  19
BRANCH  18  21
ATOM     21  CB  GLN A   1       8.469  35.612  10.194  0.00  0.00    +0.036 C 
BRANCH  21  22
ATOM     22  CG  GLN A   1       8.087  34.594   9.155  0.00  0.00    +0.087 C 
BRANCH  22  23
ATOM     23  CD  GLN A   1       7.117  33.565   9.684  0.00  0.00    +0.219 C 
ATOM     24  OE1 GLN A   1       7.457  32.771  10.561  0.00  0.00    -0.275 OA
ATOM     25  NE2 GLN A   1       5.896  33.577   9.158  0.00  0.00    -0.329 N 
ATOM     26 HE21 GLN A   1       5.182  32.896   9.486  0.00  0.00    +0.145 HD
ATOM     27 HE22 GLN A   1       5.655  34.267   8.418  0.00  0.00    +0.145 HD
ENDBRANCH  22  23
ENDBRANCH  21  22
ENDBRANCH  18  21
ENDBRANCH  11  18
ENDBRANCH   7  16
ENDBRANCH   6   9
BRANCH   6  28
ATOM     28  CB  ASP A   3      13.679  33.297   4.491  0.00  0.00    +0.143 C 
BRANCH  28  29
ATOM     29  CG  ASP A   3      13.199  34.432   3.626  0.00  0.00    +0.367 C 
ATOM     30  OD2 ASP A   3      11.986  34.764   3.699  0.00  0.00    -0.246 OA
ATOM     31  OD1 ASP A   3      14.035  34.986   2.879  0.00  0.00    -0.246 OA
ENDBRANCH  28  29
ENDBRANCH   6  28
ENDBRANCH   2   6
ENDBRANCH   1   4
BRANCH   1  32
ATOM     32  C   TYR A   4      14.249  28.856   5.940  0.00  0.00    +0.241 C 
ATOM     33  N   LEU A   5      15.009  28.067   6.684  0.00  0.00    -0.297 N 
ATOM     34  H   LEU A   5      14.938  28.122   7.720  0.00  0.00    +0.150 HD
ATOM     35  O   TYR A   4      14.468  29.087   4.749  0.00  0.00    -0.273 OA
BRANCH  33  36
ATOM     36  CA  LEU A   5      15.935  27.132   6.088  0.00  0.00    +0.149 C 
BRANCH  36  37
ATOM     37  C   LEU A   5      15.242  25.786   6.076  0.00  0.00    +0.241 C 
ATOM     38  O   LEU A   5      14.804  25.299   7.116  0.00  0.00    -0.273 OA
ATOM     39  N   ASN A   6      15.108  25.212   4.883  0.00  0.00    -0.297 N 
ATOM     40  H   ASN A   6      15.413  25.741   4.041  0.00  0.00    +0.150 HD
BRANCH  39  41
ATOM     41  CA  ASN A   6      14.556  23.882   4.702  0.00  0.00    +0.158 C 
BRANCH  41  42
ATOM     42  C   ASN A   6      15.591  22.963   4.063  0.00  0.00    +0.241 C 
ATOM     43  N   ALA A   7      15.519  21.699   4.444  0.00  0.00    -0.298 N 
ATOM     44  H   ALA A   7      14.814  21.447   5.166  0.00  0.00    +0.150 HD
ATOM     45  O   ASN A   6      16.404  23.383   3.229  0.00  0.00    -0.273 OA
BRANCH  43  46
ATOM     46  CA  ALA A   7      16.350  20.656   3.926  0.00  0.00    +0.137 C 
ATOM     47  CB  ALA A   7      17.730  20.677   4.646  0.00  0.00    +0.030 C 
BRANCH  46  48
ATOM     48  C   ALA A   7      15.646  19.319   4.124  0.00  0.00    +0.227 C 
ATOM     49  O   ALA A   7      14.651  19.224   4.871  0.00  0.00    -0.286 OA
ENDBRANCH  46  48
ENDBRANCH  43  46
ENDBRANCH  41  42
BRANCH  41  50
ATOM     50  CB  ASN A   6      13.273  23.931   3.835  0.00  0.00    +0.114 C 
BRANCH  50  51
ATOM     51  CG  ASN A   6      12.071  24.486   4.586  0.00  0.00    +0.222 C 
ATOM     52  ND2 ASN A   6      11.656  23.781   5.636  0.00  0.00    -0.329 N 
ATOM     53 HD21 ASN A   6      10.855  24.120   6.206  0.00  0.00    +0.145 HD
ATOM     54 HD22 ASN A   6      12.133  22.891   5.886  0.00  0.00    +0.145 HD
ATOM     55  OD1 ASN A   6      11.543  25.540   4.250  0.00  0.00    -0.275 OA
ENDBRANCH  50  51
ENDBRANCH  41  50
ENDBRANCH  39  41
ENDBRANCH  36  37
BRANCH  36  56
ATOM     56  CB  LEU A   5      17.227  27.065   6.895  0.00  0.00    +0.029 C 
BRANCH  56  57
ATOM     57  CG  LEU A   5      18.421  26.371   6.227  0.00  0.00    +0.002 C 
ATOM     58  CD2 LEU A   5      19.695  26.745   6.985  0.00  0.00    +0.000 C 
ATOM     59  CD1 LEU A   5      18.242  24.886   6.224  0.00  0.00    +0.000 C 
ENDBRANCH  56  57
ENDBRANCH  36  56
ENDBRANCH  33  36
ENDBRANCH   1  32
BRANCH   1  60
ATOM     60  CB  TYR A   4      11.901  28.439   6.510  0.00  0.00    +0.055 C 
BRANCH  60  61
ATOM     61  CG  TYR A   4      10.748  28.716   7.440  0.00  0.00    -0.020 A 
ATOM     62  CD2 TYR A   4      10.426  27.831   8.450  0.00  0.00    -0.001 A 
ATOM     63  CE2 TYR A   4       9.390  28.100   9.316  0.00  0.00    +0.036 A 
ATOM     64  CZ  TYR A   4       8.659  29.262   9.150  0.00  0.00    +0.134 A 
ATOM     65  CE1 TYR A   4       8.963  30.148   8.152  0.00  0.00    +0.036 A 
ATOM     66  CD1 TYR A   4       9.999  29.875   7.304  0.00  0.00    -0.001 A 
BRANCH  64  67
ATOM     67  OH  TYR A   4       7.614  29.556   9.993  0.00  0.00    -0.506 OA
ATOM     68  HH  TYR A   4       7.210  30.420   9.727  0.00  0.00    +0.292 HD
ENDBRANCH  64  67
ENDBRANCH  60  61
ENDBRANCH   1  60
TORSDOF 25
REMARK  Name = ../refined-set-2016/4f7v/4f7v_pocket.pdb
REMARK  248 active torsions:
REMARK  status: ('A' for Active; 'I' for Inactive)
REMARK    1  A    between atoms: _1  and  _3
REMARK    2  A    between atoms: _3  and  _4
REMARK    3  A    between atoms: _3  and  _6
REMARK    4  A    between atoms: _6  and  _7
REMARK    5  A    between atoms: _12  and  _13
REMARK    6  A    between atoms: _15  and  _17
REMARK    7  A    between atoms: _17  and  _18
REMARK    8  A    between atoms: _17  and  _20
REMARK    9  A    between atoms: _20  and  _21
REMARK   10  A    between atoms: _24  and  _26
REMARK   11  A    between atoms: _26  and  _27
REMARK   12  A    between atoms: _30  and  _32
REMARK   13  A    between atoms: _32  and  _33
REMARK   14  A    between atoms: _32  and  _35
REMARK   15  A    between atoms: _35  and  _36
REMARK   16  A    between atoms: _39  and  _41
REMARK   17  A    between atoms: _41  and  _42
REMARK   18  A    between atoms: _44  and  _46
REMARK   19  A    between atoms: _46  and  _47
REMARK   20  A    between atoms: _46  and  _49
REMARK   21  A    between atoms: _49  and  _50
REMARK   22  A    between atoms: _52  and  _54
REMARK   23  A    between atoms: _54  and  _55
REMARK   24  A    between atoms: _54  and  _57
REMARK   25  A    between atoms: _57  and  _58
REMARK   26  A    between atoms: _63  and  _65
REMARK   27  A    between atoms: _65  and  _66
REMARK   28  A    between atoms: _65  and  _68
REMARK   29  A    between atoms: _68  and  _69
REMARK   30  A    between atoms: _74  and  _75
REMARK   31  A    between atoms: _77  and  _79
REMARK   32  A    between atoms: _79  and  _80
REMARK   33  A    between atoms: _79  and  _82
REMARK   34  A    between atoms: _82  and  _83
REMARK   35  A    between atoms: _83  and  _84
REMARK   36  A    between atoms: _84  and  _85
REMARK   37  A    between atoms: _94  and  _96
REMARK   38  A    between atoms: _96  and  _97
REMARK   39  A    between atoms: _96  and  _99
REMARK   40  A    between atoms: _99  and  _100
REMARK   41  A    between atoms: _104  and  _105
REMARK   42  A    between atoms: _111  and  _112
REMARK   43  A    between atoms: _117  and  _119
REMARK   44  A    between atoms: _119  and  _120
REMARK   45  A    between atoms: _119  and  _122
REMARK   46  A    between atoms: _122  and  _123
REMARK   47  A    between atoms: _126  and  _128
REMARK   48  A    between atoms: _128  and  _129
REMARK   49  A    between atoms: _132  and  _133
REMARK   50  A    between atoms: _138  and  _140
REMARK   51  A    between atoms: _140  and  _141
REMARK   52  A    between atoms: _140  and  _143
REMARK   53  A    between atoms: _143  and  _144
REMARK   54  A    between atoms: _144  and  _145
REMARK   55  A    between atoms: _150  and  _152
REMARK   56  A    between atoms: _152  and  _153
REMARK   57  A    between atoms: _152  and  _155
REMARK   58  A    between atoms: _155  and  _156
REMARK   59  A    between atoms: _156  and  _157
REMARK   60  A    between atoms: _163  and  _164
REMARK   61  A    between atoms: _169  and  _171
REMARK   62  A    between atoms: _171  and  _172
REMARK   63  A    between atoms: _171  and  _174
REMARK   64  A    between atoms: _174  and  _175
REMARK   65  A    between atoms: _178  and  _180
REMARK   66  A    between atoms: _180  and  _181
REMARK   67  A    between atoms: _180  and  _183
REMARK   68  A    between atoms: _183  and  _184
REMARK   69  A    between atoms: _189  and  _190
REMARK   70  A    between atoms: _192  and  _194
REMARK   71  A    between atoms: _194  and  _195
REMARK   72  A    between atoms: _194  and  _197
REMARK   73  A    between atoms: _197  and  _198
REMARK   74  A    between atoms: _201  and  _203
REMARK   75  A    between atoms: _203  and  _204
REMARK   76  A    between atoms: _203  and  _206
REMARK   77  A    between atoms: _206  and  _207
REMARK   78  A    between atoms: _212  and  _214
REMARK   79  A    between atoms: _214  and  _215
REMARK   80  A    between atoms: _218  and  _220
REMARK   81  A    between atoms: _220  and  _221
REMARK   82  A    between atoms: _220  and  _223
REMARK   83  A    between atoms: _223  and  _224
REMARK   84  A    between atoms: _227  and  _229
REMARK   85  A    between atoms: _229  and  _230
REMARK   86  A    between atoms: _229  and  _232
REMARK   87  A    between atoms: _232  and  _233
REMARK   88  A    between atoms: _236  and  _238
REMARK   89  A    between atoms: _238  and  _239
REMARK   90  A    between atoms: _238  and  _241
REMARK   91  A    between atoms: _241  and  _242
REMARK   92  A    between atoms: _245  and  _247
REMARK   93  A    between atoms: _247  and  _248
REMARK   94  A    between atoms: _247  and  _250
REMARK   95  A    between atoms: _250  and  _251
REMARK   96  A    between atoms: _251  and  _252
REMARK   97  A    between atoms: _257  and  _259
REMARK   98  A    between atoms: _259  and  _260
REMARK   99  A    between atoms: _259  and  _262
REMARK  100  A    between atoms: _262  and  _263
REMARK  101  A    between atoms: _263  and  _264
REMARK  102  A    between atoms: _264  and  _265
REMARK  103  A    between atoms: _274  and  _276
REMARK  104  A    between atoms: _276  and  _277
REMARK  105  A    between atoms: _276  and  _279
REMARK  106  A    between atoms: _279  and  _280
REMARK  107  A    between atoms: _280  and  _281
REMARK  108  A    between atoms: _284  and  _286
REMARK  109  A    between atoms: _286  and  _287
REMARK  110  A    between atoms: _286  and  _289
REMARK  111  A    between atoms: _289  and  _290
REMARK  112  A    between atoms: _293  and  _295
REMARK  113  A    between atoms: _295  and  _296
REMARK  114  A    between atoms: _295  and  _298
REMARK  115  A    between atoms: _298  and  _299
REMARK  116  A    between atoms: _299  and  _300
REMARK  117  A    between atoms: _300  and  _301
REMARK  118  A    between atoms: _310  and  _312
REMARK  119  A    between atoms: _312  and  _313
REMARK  120  A    between atoms: _312  and  _315
REMARK  121  A    between atoms: _315  and  _316
REMARK  122  A    between atoms: _316  and  _317
REMARK  123  A    between atoms: _317  and  _318
REMARK  124  A    between atoms: _318  and  _319
REMARK  125  A    between atoms: _323  and  _325
REMARK  126  A    between atoms: _325  and  _326
REMARK  127  A    between atoms: _329  and  _331
REMARK  128  A    between atoms: _331  and  _332
REMARK  129  A    between atoms: _331  and  _334
REMARK  130  A    between atoms: _334  and  _335
REMARK  131  A    between atoms: _335  and  _336
REMARK  132  A    between atoms: _339  and  _341
REMARK  133  A    between atoms: _341  and  _342
REMARK  134  A    between atoms: _341  and  _344
REMARK  135  A    between atoms: _344  and  _345
REMARK  136  A    between atoms: _345  and  _346
REMARK  137  A    between atoms: _346  and  _347
REMARK  138  A    between atoms: _356  and  _358
REMARK  139  A    between atoms: _358  and  _359
REMARK  140  A    between atoms: _358  and  _361
REMARK  141  A    between atoms: _361  and  _362
REMARK  142  A    between atoms: _372  and  _374
REMARK  143  A    between atoms: _374  and  _375
REMARK  144  A    between atoms: _378  and  _379
REMARK  145  A    between atoms: _384  and  _386
REMARK  146  A    between atoms: _386  and  _387
REMARK  147  A    between atoms: _386  and  _389
REMARK  148  A    between atoms: _389  and  _390
REMARK  149  A    between atoms: _390  and  _391
REMARK  150  A    between atoms: _391  and  _392
REMARK  151  A    between atoms: _401  and  _403
REMARK  152  A    between atoms: _403  and  _404
REMARK  153  A    between atoms: _403  and  _406
REMARK  154  A    between atoms: _406  and  _407
REMARK  155  A    between atoms: _410  and  _412
REMARK  156  A    between atoms: _412  and  _413
REMARK  157  A    between atoms: _412  and  _415
REMARK  158  A    between atoms: _415  and  _416
REMARK  159  A    between atoms: _419  and  _421
REMARK  160  A    between atoms: _421  and  _422
REMARK  161  A    between atoms: _421  and  _424
REMARK  162  A    between atoms: _424  and  _425
REMARK  163  A    between atoms: _428  and  _430
REMARK  164  A    between atoms: _430  and  _431
REMARK  165  A    between atoms: _430  and  _433
REMARK  166  A    between atoms: _433  and  _434
REMARK  167  A    between atoms: _437  and  _439
REMARK  168  A    between atoms: _439  and  _440
REMARK  169  A    between atoms: _439  and  _442
REMARK  170  A    between atoms: _442  and  _443
REMARK  171  A    between atoms: _446  and  _448
REMARK  172  A    between atoms: _448  and  _449
REMARK  173  A    between atoms: _448  and  _451
REMARK  174  A    between atoms: _451  and  _452
REMARK  175  A    between atoms: _452  and  _453
REMARK  176  A    between atoms: _455  and  _457
REMARK  177  A    between atoms: _457  and  _458
REMARK  178  A    between atoms: _457  and  _460
REMARK  179  A    between atoms: _460  and  _461
REMARK  180  A    between atoms: _464  and  _466
REMARK  181  A    between atoms: _466  and  _467
REMARK  182  A    between atoms: _466  and  _469
REMARK  183  A    between atoms: _469  and  _470
REMARK  184  A    between atoms: _476  and  _478
REMARK  185  A    between atoms: _478  and  _479
REMARK  186  A    between atoms: _478  and  _481
REMARK  187  A    between atoms: _481  and  _482
REMARK  188  A    between atoms: _485  and  _487
REMARK  189  A    between atoms: _487  and  _488
REMARK  190  A    between atoms: _487  and  _490
REMARK  191  A    between atoms: _490  and  _491
REMARK  192  A    between atoms: _494  and  _496
REMARK  193  A    between atoms: _496  and  _497
REMARK  194  A    between atoms: _496  and  _499
REMARK  195  A    between atoms: _499  and  _500
REMARK  196  A    between atoms: _500  and  _501
REMARK  197  A    between atoms: _504  and  _506
REMARK  198  A    between atoms: _506  and  _507
REMARK  199  A    between atoms: _506  and  _509
REMARK  200  A    between atoms: _509  and  _510
REMARK  201  A    between atoms: _510  and  _511
REMARK  202  A    between atoms: _511  and  _512
REMARK  203  A    between atoms: _521  and  _523
REMARK  204  A    between atoms: _523  and  _524
REMARK  205  A    between atoms: _523  and  _526
REMARK  206  A    between atoms: _526  and  _527
REMARK  207  A    between atoms: _530  and  _532
REMARK  208  A    between atoms: _532  and  _533
REMARK  209  A    between atoms: _532  and  _535
REMARK  210  A    between atoms: _535  and  _536
REMARK  211  A    between atoms: _539  and  _541
REMARK  212  A    between atoms: _541  and  _542
REMARK  213  A    between atoms: _541  and  _544
REMARK  214  A    between atoms: _548  and  _549
REMARK  215  A    between atoms: _554  and  _556
REMARK  216  A    between atoms: _556  and  _557
REMARK  217  A    between atoms: _556  and  _559
REMARK  218  A    between atoms: _559  and  _560
REMARK  219  A    between atoms: _565  and  _567
REMARK  220  A    between atoms: _567  and  _568
REMARK  221  A    between atoms: _567  and  _570
REMARK  222  A    between atoms: _570  and  _571
REMARK  223  A    between atoms: _576  and  _577
REMARK  224  A    between atoms: _579  and  _581
REMARK  225  A    between atoms: _581  and  _582
REMARK  226  A    between atoms: _581  and  _584
REMARK  227  A    between atoms: _584  and  _585
REMARK  228  A    between atoms: _588  and  _590
REMARK  229  A    between atoms: _590  and  _591
REMARK  230  A    between atoms: _590  and  _593
REMARK  231  A    between atoms: _593  and  _594
REMARK  232  A    between atoms: _594  and  _595
REMARK  233  A    between atoms: _595  and  _596
REMARK  234  A    between atoms: _605  and  _607
REMARK  235  A    between atoms: _607  and  _608
REMARK  236  A    between atoms: _610  and  _612
REMARK  237  A    between atoms: _612  and  _613
REMARK  238  A    between atoms: _612  and  _615
REMARK  239  A    between atoms: _615  and  _616
REMARK  240  A    between atoms: _622  and  _624
REMARK  241  A    between atoms: _624  and  _625
REMARK  242  A    between atoms: _624  and  _627
REMARK  243  A    between atoms: _627  and  _628
REMARK  244  A    between atoms: _628  and  _629
REMARK  245  A    between atoms: _631  and  _633
REMARK  246  A    between atoms: _633  and  _634
REMARK  247  A    between atoms: _633  and  _636
REMARK  248  A    between atoms: _636  and  _637
REMARK                            x       y       z     vdW  Elec       q    Type
REMARK                         _______ _______ _______ _____ _____    ______ ____
ROOT
ATOM      1  C   LEU A   1      11.123   8.653  15.793  0.00  0.00    +0.238 C 
ATOM      2  O   LEU A   1      11.806   9.625  16.102  0.00  0.00    -0.274 OA
ATOM      3  N   LEU A   2       9.790   8.713  15.786  0.00  0.00    -0.298 N 
ATOM      4  H   LEU A   2       9.234   7.871  15.535  0.00  0.00    +0.150 HD
ENDROOT
BRANCH   1   5
ATOM      5  CA  LEU A   1      11.773   7.322  15.407  0.00  0.00    +0.145 C 
BRANCH   5   6
ATOM      6  N   LEU A   1      11.129   6.213  16.102  0.00  0.00    -0.238 NA
ATOM      7  H   LEU A   1      10.712   5.421  15.572  0.00  0.00    +0.142 HD
ENDBRANCH   5   6
BRANCH   5   8
ATOM      8  CB  LEU A   1      11.729   7.098  13.888  0.00  0.00    +0.026 C 
BRANCH   8   9
ATOM      9  CG  LEU A   1      12.371   8.228  13.094  0.00  0.00    +0.002 C 
ATOM     10  CD2 LEU A   1      13.825   8.519  13.524  0.00  0.00    +0.000 C 
ATOM     11  CD1 LEU A   1      12.264   7.930  11.568  0.00  0.00    +0.000 C 
ENDBRANCH   8   9
ENDBRANCH   5   8
ENDBRANCH   1   5
BRANCH   3  12
ATOM     12  CA  LEU A   2       9.112   9.957  16.130  0.00  0.00    +0.137 C 
BRANCH  12  13
ATOM     13  C   LEU A   2       9.478  10.388  17.553  0.00  0.00    +0.227 C 
ATOM     14  O   LEU A   2       9.675  11.572  17.797  0.00  0.00    -0.286 OA
ENDBRANCH  12  13
BRANCH  12  15
ATOM     15  CB  LEU A   2       7.575   9.835  15.993  0.00  0.00    +0.028 C 
BRANCH  15  16
ATOM     16  CG  LEU A   2       6.760  11.091  16.294  0.00  0.00    +0.002 C 
ATOM     17  CD2 LEU A   2       5.256  10.738  16.349  0.00  0.00    +0.000 C 
ATOM     18  CD1 LEU A   2       7.030  12.183  15.277  0.00  0.00    +0.000 C 
ENDBRANCH  15  16
ENDBRANCH  12  15
ENDBRANCH   3  12
TORSDOF 8
REMARK  Name = ../refined-set-2016/4f7v/4f7v_pocket.pdb
REMARK  248 active torsions:
REMARK  status: ('A' for Active; 'I' for Inactive)
REMARK    1  A    between atoms: _1  and  _3
REMARK    2  A    between atoms: _3  and  _4
REMARK    3  A    between atoms: _3  and  _6
REMARK    4  A    between atoms: _6  and  _7
REMARK    5  A    between atoms: _12  and  _13
REMARK    6  A    between atoms: _15  and  _17
REMARK    7  A    between atoms: _17  and  _18
REMARK    8  A    between atoms: _17  and  _20
REMARK    9  A    between atoms: _20  and  _21
REMARK   10  A    between atoms: _24  and  _26
REMARK   11  A    between atoms: _26  and  _27
REMARK   12  A    between atoms: _30  and  _32
REMARK   13  A    between atoms: _32  and  _33
REMARK   14  A    between atoms: _32  and  _35
REMARK   15  A    between atoms: _35  and  _36
REMARK   16  A    between atoms: _39  and  _41
REMARK   17  A    between atoms: _41  and  _42
REMARK   18  A    between atoms: _44  and  _46
REMARK   19  A    between atoms: _46  and  _47
REMARK   20  A    between atoms: _46  and  _49
REMARK   21  A    between atoms: _49  and  _50
REMARK   22  A    between atoms: _52  and  _54
REMARK   23  A    between atoms: _54  and  _55
REMARK   24  A    between atoms: _54  and  _57
REMARK   25  A    between atoms: _57  and  _58
REMARK   26  A    between atoms: _63  and  _65
REMARK   27  A    between atoms: _65  and  _66
REMARK   28  A    between atoms: _65  and  _68
REMARK   29  A    between atoms: _68  and  _69
REMARK   30  A    between atoms: _74  and  _75
REMARK   31  A    between atoms: _77  and  _79
REMARK   32  A    between atoms: _79  and  _80
REMARK   33  A    between atoms: _79  and  _82
REMARK   34  A    between atoms: _82  and  _83
REMARK   35  A    between atoms: _83  and  _84
REMARK   36  A    between atoms: _84  and  _85
REMARK   37  A    between atoms: _94  and  _96
REMARK   38  A    between atoms: _96  and  _97
REMARK   39  A    between atoms: _96  and  _99
REMARK   40  A    between atoms: _99  and  _100
REMARK   41  A    between atoms: _104  and  _105
REMARK   42  A    between atoms: _111  and  _112
REMARK   43  A    between atoms: _117  and  _119
REMARK   44  A    between atoms: _119  and  _120
REMARK   45  A    between atoms: _119  and  _122
REMARK   46  A    between atoms: _122  and  _123
REMARK   47  A    between atoms: _126  and  _128
REMARK   48  A    between atoms: _128  and  _129
REMARK   49  A    between atoms: _132  and  _133
REMARK   50  A    between atoms: _138  and  _140
REMARK   51  A    between atoms: _140  and  _141
REMARK   52  A    between atoms: _140  and  _143
REMARK   53  A    between atoms: _143  and  _144
REMARK   54  A    between atoms: _144  and  _145
REMARK   55  A    between atoms: _150  and  _152
REMARK   56  A    between atoms: _152  and  _153
REMARK   57  A    between atoms: _152  and  _155
REMARK   58  A    between atoms: _155  and  _156
REMARK   59  A    between atoms: _156  and  _157
REMARK   60  A    between atoms: _163  and  _164
REMARK   61  A    between atoms: _169  and  _171
REMARK   62  A    between atoms: _171  and  _172
REMARK   63  A    between atoms: _171  and  _174
REMARK   64  A    between atoms: _174  and  _175
REMARK   65  A    between atoms: _178  and  _180
REMARK   66  A    between atoms: _180  and  _181
REMARK   67  A    between atoms: _180  and  _183
REMARK   68  A    between atoms: _183  and  _184
REMARK   69  A    between atoms: _189  and  _190
REMARK   70  A    between atoms: _192  and  _194
REMARK   71  A    between atoms: _194  and  _195
REMARK   72  A    between atoms: _194  and  _197
REMARK   73  A    between atoms: _197  and  _198
REMARK   74  A    between atoms: _201  and  _203
REMARK   75  A    between atoms: _203  and  _204
REMARK   76  A    between atoms: _203  and  _206
REMARK   77  A    between atoms: _206  and  _207
REMARK   78  A    between atoms: _212  and  _214
REMARK   79  A    between atoms: _214  and  _215
REMARK   80  A    between atoms: _218  and  _220
REMARK   81  A    between atoms: _220  and  _221
REMARK   82  A    between atoms: _220  and  _223
REMARK   83  A    between atoms: _223  and  _224
REMARK   84  A    between atoms: _227  and  _229
REMARK   85  A    between atoms: _229  and  _230
REMARK   86  A    between atoms: _229  and  _232
REMARK   87  A    between atoms: _232  and  _233
REMARK   88  A    between atoms: _236  and  _238
REMARK   89  A    between atoms: _238  and  _239
REMARK   90  A    between atoms: _238  and  _241
REMARK   91  A    between atoms: _241  and  _242
REMARK   92  A    between atoms: _245  and  _247
REMARK   93  A    between atoms: _247  and  _248
REMARK   94  A    between atoms: _247  and  _250
REMARK   95  A    between atoms: _250  and  _251
REMARK   96  A    between atoms: _251  and  _252
REMARK   97  A    between atoms: _257  and  _259
REMARK   98  A    between atoms: _259  and  _260
REMARK   99  A    between atoms: _259  and  _262
REMARK  100  A    between atoms: _262  and  _263
REMARK  101  A    between atoms: _263  and  _264
REMARK  102  A    between atoms: _264  and  _265
REMARK  103  A    between atoms: _274  and  _276
REMARK  104  A    between atoms: _276  and  _277
REMARK  105  A    between atoms: _276  and  _279
REMARK  106  A    between atoms: _279  and  _280
REMARK  107  A    between atoms: _280  and  _281
REMARK  108  A    between atoms: _284  and  _286
REMARK  109  A    between atoms: _286  and  _287
REMARK  110  A    between atoms: _286  and  _289
REMARK  111  A    between atoms: _289  and  _290
REMARK  112  A    between atoms: _293  and  _295
REMARK  113  A    between atoms: _295  and  _296
REMARK  114  A    between atoms: _295  and  _298
REMARK  115  A    between atoms: _298  and  _299
REMARK  116  A    between atoms: _299  and  _300
REMARK  117  A    between atoms: _300  and  _301
REMARK  118  A    between atoms: _310  and  _312
REMARK  119  A    between atoms: _312  and  _313
REMARK  120  A    between atoms: _312  and  _315
REMARK  121  A    between atoms: _315  and  _316
REMARK  122  A    between atoms: _316  and  _317
REMARK  123  A    between atoms: _317  and  _318
REMARK  124  A    between atoms: _318  and  _319
REMARK  125  A    between atoms: _323  and  _325
REMARK  126  A    between atoms: _325  and  _326
REMARK  127  A    between atoms: _329  and  _331
REMARK  128  A    between atoms: _331  and  _332
REMARK  129  A    between atoms: _331  and  _334
REMARK  130  A    between atoms: _334  and  _335
REMARK  131  A    between atoms: _335  and  _336
REMARK  132  A    between atoms: _339  and  _341
REMARK  133  A    between atoms: _341  and  _342
REMARK  134  A    between atoms: _341  and  _344
REMARK  135  A    between atoms: _344  and  _345
REMARK  136  A    between atoms: _345  and  _346
REMARK  137  A    between atoms: _346  and  _347
REMARK  138  A    between atoms: _356  and  _358
REMARK  139  A    between atoms: _358  and  _359
REMARK  140  A    between atoms: _358  and  _361
REMARK  141  A    between atoms: _361  and  _362
REMARK  142  A    between atoms: _372  and  _374
REMARK  143  A    between atoms: _374  and  _375
REMARK  144  A    between atoms: _378  and  _379
REMARK  145  A    between atoms: _384  and  _386
REMARK  146  A    between atoms: _386  and  _387
REMARK  147  A    between atoms: _386  and  _389
REMARK  148  A    between atoms: _389  and  _390
REMARK  149  A    between atoms: _390  and  _391
REMARK  150  A    between atoms: _391  and  _392
REMARK  151  A    between atoms: _401  and  _403
REMARK  152  A    between atoms: _403  and  _404
REMARK  153  A    between atoms: _403  and  _406
REMARK  154  A    between atoms: _406  and  _407
REMARK  155  A    between atoms: _410  and  _412
REMARK  156  A    between atoms: _412  and  _413
REMARK  157  A    between atoms: _412  and  _415
REMARK  158  A    between atoms: _415  and  _416
REMARK  159  A    between atoms: _419  and  _421
REMARK  160  A    between atoms: _421  and  _422
REMARK  161  A    between atoms: _421  and  _424
REMARK  162  A    between atoms: _424  and  _425
REMARK  163  A    between atoms: _428  and  _430
REMARK  164  A    between atoms: _430  and  _431
REMARK  165  A    between atoms: _430  and  _433
REMARK  166  A    between atoms: _433  and  _434
REMARK  167  A    between atoms: _437  and  _439
REMARK  168  A    between atoms: _439  and  _440
REMARK  169  A    between atoms: _439  and  _442
REMARK  170  A    between atoms: _442  and  _443
REMARK  171  A    between atoms: _446  and  _448
REMARK  172  A    between atoms: _448  and  _449
REMARK  173  A    between atoms: _448  and  _451
REMARK  174  A    between atoms: _451  and  _452
REMARK  175  A    between atoms: _452  and  _453
REMARK  176  A    between atoms: _455  and  _457
REMARK  177  A    between atoms: _457  and  _458
REMARK  178  A    between atoms: _457  and  _460
REMARK  179  A    between atoms: _460  and  _461
REMARK  180  A    between atoms: _464  and  _466
REMARK  181  A    between atoms: _466  and  _467
REMARK  182  A    between atoms: _466  and  _469
REMARK  183  A    between atoms: _469  and  _470
REMARK  184  A    between atoms: _476  and  _478
REMARK  185  A    between atoms: _478  and  _479
REMARK  186  A    between atoms: _478  and  _481
REMARK  187  A    between atoms: _481  and  _482
REMARK  188  A    between atoms: _485  and  _487
REMARK  189  A    between atoms: _487  and  _488
REMARK  190  A    between atoms: _487  and  _490
REMARK  191  A    between atoms: _490  and  _491
REMARK  192  A    between atoms: _494  and  _496
REMARK  193  A    between atoms: _496  and  _497
REMARK  194  A    between atoms: _496  and  _499
REMARK  195  A    between atoms: _499  and  _500
REMARK  196  A    between atoms: _500  and  _501
REMARK  197  A    between atoms: _504  and  _506
REMARK  198  A    between atoms: _506  and  _507
REMARK  199  A    between atoms: _506  and  _509
REMARK  200  A    between atoms: _509  and  _510
REMARK  201  A    between atoms: _510  and  _511
REMARK  202  A    between atoms: _511  and  _512
REMARK  203  A    between atoms: _521  and  _523
REMARK  204  A    between atoms: _523  and  _524
REMARK  205  A    between atoms: _523  and  _526
REMARK  206  A    between atoms: _526  and  _527
REMARK  207  A    between atoms: _530  and  _532
REMARK  208  A    between atoms: _532  and  _533
REMARK  209  A    between atoms: _532  and  _535
REMARK  210  A    between atoms: _535  and  _536
REMARK  211  A    between atoms: _539  and  _541
REMARK  212  A    between atoms: _541  and  _542
REMARK  213  A    between atoms: _541  and  _544
REMARK  214  A    between atoms: _548  and  _549
REMARK  215  A    between atoms: _554  and  _556
REMARK  216  A    between atoms: _556  and  _557
REMARK  217  A    between atoms: _556  and  _559
REMARK  218  A    between atoms: _559  and  _560
REMARK  219  A    between atoms: _565  and  _567
REMARK  220  A    between atoms: _567  and  _568
REMARK  221  A    between atoms: _567  and  _570
REMARK  222  A    between atoms: _570  and  _571
REMARK  223  A    between atoms: _576  and  _577
REMARK  224  A    between atoms: _579  and  _581
REMARK  225  A    between atoms: _581  and  _582
REMARK  226  A    between atoms: _581  and  _584
REMARK  227  A    between atoms: _584  and  _585
REMARK  228  A    between atoms: _588  and  _590
REMARK  229  A    between atoms: _590  and  _591
REMARK  230  A    between atoms: _590  and  _593
REMARK  231  A    between atoms: _593  and  _594
REMARK  232  A    between atoms: _594  and  _595
REMARK  233  A    between atoms: _595  and  _596
REMARK  234  A    between atoms: _605  and  _607
REMARK  235  A    between atoms: _607  and  _608
REMARK  236  A    between atoms: _610  and  _612
REMARK  237  A    between atoms: _612  and  _613
REMARK  238  A    between atoms: _612  and  _615
REMARK  239  A    between atoms: _615  and  _616
REMARK  240  A    between atoms: _622  and  _624
REMARK  241  A    between atoms: _624  and  _625
REMARK  242  A    between atoms: _624  and  _627
REMARK  243  A    between atoms: _627  and  _628
REMARK  244  A    between atoms: _628  and  _629
REMARK  245  A    between atoms: _631  and  _633
REMARK  246  A    between atoms: _633  and  _634
REMARK  247  A    between atoms: _633  and  _636
REMARK  248  A    between atoms: _636  and  _637
REMARK                            x       y       z     vdW  Elec       q    Type
REMARK                         _______ _______ _______ _____ _____    ______ ____
ROOT
ATOM      1  CA  GLN A   2      10.287  15.028  19.056  0.00  0.00    +0.149 C 
ENDROOT
BRANCH   1   3
ATOM      2  C   THR A   1      11.982  14.553  17.388  0.00  0.00    +0.241 C 
ATOM      3  N   GLN A   2      10.961  14.124  18.127  0.00  0.00    -0.297 N 
ATOM      4  H   GLN A   2      10.641  13.138  18.042  0.00  0.00    +0.150 HD
ATOM      5  O   THR A   1      12.368  15.715  17.418  0.00  0.00    -0.274 OA
BRANCH   2   6
ATOM      6  CA  THR A   1      12.683  13.532  16.501  0.00  0.00    +0.172 C 
BRANCH   6   7
ATOM      7  N   THR A   1      12.767  12.239  17.158  0.00  0.00    -0.236 NA
ATOM      8  H   THR A   1      12.284  11.413  16.749  0.00  0.00    +0.142 HD
ENDBRANCH   6   7
BRANCH   6   9
ATOM      9  CB  THR A   1      11.987  13.449  15.122  0.00  0.00    +0.135 C 
ATOM     10  CG2 THR A   1      12.759  12.521  14.199  0.00  0.00    +0.034 C 
BRANCH   9  11
ATOM     11  OG1 THR A   1      10.657  12.946  15.264  0.00  0.00    -0.383 OA
ATOM     12  HG1 THR A   1      10.138  13.550  15.852  0.00  0.00    +0.210 HD
ENDBRANCH   9  11
ENDBRANCH   6   9
ENDBRANCH   2   6
ENDBRANCH   1   3
BRANCH   1  13
ATOM     13  C   GLN A   2      11.178  15.412  20.230  0.00  0.00    +0.241 C 
ATOM     14  O   GLN A   2      11.137  16.559  20.689  0.00  0.00    -0.273 OA
ATOM     15  N   ARG A   3      11.981  14.465  20.677  0.00  0.00    -0.298 N 
ATOM     16  H   ARG A   3      11.916  13.506  20.281  0.00  0.00    +0.150 HD
BRANCH  15  17
ATOM     17  CA  ARG A   3      12.959  14.750  21.722  0.00  0.00    +0.137 C 
BRANCH  17  18
ATOM     18  C   ARG A   3      13.944  15.842  21.242  0.00  0.00    +0.227 C 
ATOM     19  O   ARG A   3      14.196  16.834  21.921  0.00  0.00    -0.286 OA
ENDBRANCH  17  18
BRANCH  17  20
ATOM     20  CB  ARG A   3      13.701  13.489  22.088  0.00  0.00    +0.031 C 
BRANCH  20  21
ATOM     21  CG  ARG A   3      14.941  13.801  22.935  0.00  0.00    +0.045 C 
BRANCH  21  22
ATOM     22  CD  ARG A   3      15.760  12.593  23.301  0.00  0.00    +0.174 C 
BRANCH  22  23
ATOM     23  NE  ARG A   3      16.200  11.829  22.150  0.00  0.00    -0.265 N 
ATOM     24  HE  ARG A   3      15.673  10.963  21.918  0.00  0.00    +0.259 HD
ATOM     25  CZ  ARG A   3      17.230  12.152  21.366  0.00  0.00    +0.342 C 
ATOM     26  NH2 ARG A   3      17.948  13.252  21.568  0.00  0.00    -0.292 N 
ATOM     27 HH21 ARG A   3      17.713  13.889  22.355  0.00  0.00    +0.255 HD
ATOM     28 HH22 ARG A   3      18.745  13.476  20.939  0.00  0.00    +0.255 HD
ATOM     29  NH1 ARG A   3      17.541  11.353  20.366  0.00  0.00    -0.292 N 
ATOM     30 HH11 ARG A   3      16.987  10.489  20.199  0.00  0.00    +0.255 HD
ATOM     31 HH12 ARG A   3      18.340  11.587  19.743  0.00  0.00    +0.255 HD
ENDBRANCH  22  23
ENDBRANCH  21  22
ENDBRANCH  20  21
ENDBRANCH  17  20
ENDBRANCH  15  17
ENDBRANCH   1  13
BRANCH   1  32
ATOM     32  CB  GLN A   2       8.974  14.433  19.542  0.00  0.00    +0.039 C 
BRANCH  32  33
ATOM     33  CG  GLN A   2       7.885  14.495  18.479  0.00  0.00    +0.087 C 
BRANCH  33  34
ATOM     34  CD  GLN A   2       6.583  13.866  18.939  0.00  0.00    +0.219 C 
ATOM     35  OE1 GLN A   2       6.565  13.025  19.823  0.00  0.00    -0.275 OA
ATOM     36  NE2 GLN A   2       5.497  14.277  18.335  0.00  0.00    -0.329 N 
ATOM     37 HE21 GLN A   2       4.572  13.884  18.604  0.00  0.00    +0.145 HD
ATOM     38 HE22 GLN A   2       5.559  14.996  17.586  0.00  0.00    +0.145 HD
ENDBRANCH  33  34
ENDBRANCH  32  33
ENDBRANCH   1  32
TORSDOF 15
REMARK  Name = ../refined-set-2016/4f7v/4f7v_pocket.pdb
REMARK  248 active torsions:
REMARK  status: ('A' for Active; 'I' for Inactive)
REMARK    1  A    between atoms: _1  and  _3
REMARK    2  A    between atoms: _3  and  _4
REMARK    3  A    between atoms: _3  and  _6
REMARK    4  A    between atoms: _6  and  _7
REMARK    5  A    between atoms: _12  and  _13
REMARK    6  A    between atoms: _15  and  _17
REMARK    7  A    between atoms: _17  and  _18
REMARK    8  A    between atoms: _17  and  _20
REMARK    9  A    between atoms: _20  and  _21
REMARK   10  A    between atoms: _24  and  _26
REMARK   11  A    between atoms: _26  and  _27
REMARK   12  A    between atoms: _30  and  _32
REMARK   13  A    between atoms: _32  and  _33
REMARK   14  A    between atoms: _32  and  _35
REMARK   15  A    between atoms: _35  and  _36
REMARK   16  A    between atoms: _39  and  _41
REMARK   17  A    between atoms: _41  and  _42
REMARK   18  A    between atoms: _44  and  _46
REMARK   19  A    between atoms: _46  and  _47
REMARK   20  A    between atoms: _46  and  _49
REMARK   21  A    between atoms: _49  and  _50
REMARK   22  A    between atoms: _52  and  _54
REMARK   23  A    between atoms: _54  and  _55
REMARK   24  A    between atoms: _54  and  _57
REMARK   25  A    between atoms: _57  and  _58
REMARK   26  A    between atoms: _63  and  _65
REMARK   27  A    between atoms: _65  and  _66
REMARK   28  A    between atoms: _65  and  _68
REMARK   29  A    between atoms: _68  and  _69
REMARK   30  A    between atoms: _74  and  _75
REMARK   31  A    between atoms: _77  and  _79
REMARK   32  A    between atoms: _79  and  _80
REMARK   33  A    between atoms: _79  and  _82
REMARK   34  A    between atoms: _82  and  _83
REMARK   35  A    between atoms: _83  and  _84
REMARK   36  A    between atoms: _84  and  _85
REMARK   37  A    between atoms: _94  and  _96
REMARK   38  A    between atoms: _96  and  _97
REMARK   39  A    between atoms: _96  and  _99
REMARK   40  A    between atoms: _99  and  _100
REMARK   41  A    between atoms: _104  and  _105
REMARK   42  A    between atoms: _111  and  _112
REMARK   43  A    between atoms: _117  and  _119
REMARK   44  A    between atoms: _119  and  _120
REMARK   45  A    between atoms: _119  and  _122
REMARK   46  A    between atoms: _122  and  _123
REMARK   47  A    between atoms: _126  and  _128
REMARK   48  A    between atoms: _128  and  _129
REMARK   49  A    between atoms: _132  and  _133
REMARK   50  A    between atoms: _138  and  _140
REMARK   51  A    between atoms: _140  and  _141
REMARK   52  A    between atoms: _140  and  _143
REMARK   53  A    between atoms: _143  and  _144
REMARK   54  A    between atoms: _144  and  _145
REMARK   55  A    between atoms: _150  and  _152
REMARK   56  A    between atoms: _152  and  _153
REMARK   57  A    between atoms: _152  and  _155
REMARK   58  A    between atoms: _155  and  _156
REMARK   59  A    between atoms: _156  and  _157
REMARK   60  A    between atoms: _163  and  _164
REMARK   61  A    between atoms: _169  and  _171
REMARK   62  A    between atoms: _171  and  _172
REMARK   63  A    between atoms: _171  and  _174
REMARK   64  A    between atoms: _174  and  _175
REMARK   65  A    between atoms: _178  and  _180
REMARK   66  A    between atoms: _180  and  _181
REMARK   67  A    between atoms: _180  and  _183
REMARK   68  A    between atoms: _183  and  _184
REMARK   69  A    between atoms: _189  and  _190
REMARK   70  A    between atoms: _192  and  _194
REMARK   71  A    between atoms: _194  and  _195
REMARK   72  A    between atoms: _194  and  _197
REMARK   73  A    between atoms: _197  and  _198
REMARK   74  A    between atoms: _201  and  _203
REMARK   75  A    between atoms: _203  and  _204
REMARK   76  A    between atoms: _203  and  _206
REMARK   77  A    between atoms: _206  and  _207
REMARK   78  A    between atoms: _212  and  _214
REMARK   79  A    between atoms: _214  and  _215
REMARK   80  A    between atoms: _218  and  _220
REMARK   81  A    between atoms: _220  and  _221
REMARK   82  A    between atoms: _220  and  _223
REMARK   83  A    between atoms: _223  and  _224
REMARK   84  A    between atoms: _227  and  _229
REMARK   85  A    between atoms: _229  and  _230
REMARK   86  A    between atoms: _229  and  _232
REMARK   87  A    between atoms: _232  and  _233
REMARK   88  A    between atoms: _236  and  _238
REMARK   89  A    between atoms: _238  and  _239
REMARK   90  A    between atoms: _238  and  _241
REMARK   91  A    between atoms: _241  and  _242
REMARK   92  A    between atoms: _245  and  _247
REMARK   93  A    between atoms: _247  and  _248
REMARK   94  A    between atoms: _247  and  _250
REMARK   95  A    between atoms: _250  and  _251
REMARK   96  A    between atoms: _251  and  _252
REMARK   97  A    between atoms: _257  and  _259
REMARK   98  A    between atoms: _259  and  _260
REMARK   99  A    between atoms: _259  and  _262
REMARK  100  A    between atoms: _262  and  _263
REMARK  101  A    between atoms: _263  and  _264
REMARK  102  A    between atoms: _264  and  _265
REMARK  103  A    between atoms: _274  and  _276
REMARK  104  A    between atoms: _276  and  _277
REMARK  105  A    between atoms: _276  and  _279
REMARK  106  A    between atoms: _279  and  _280
REMARK  107  A    between atoms: _280  and  _281
REMARK  108  A    between atoms: _284  and  _286
REMARK  109  A    between atoms: _286  and  _287
REMARK  110  A    between atoms: _286  and  _289
REMARK  111  A    between atoms: _289  and  _290
REMARK  112  A    between atoms: _293  and  _295
REMARK  113  A    between atoms: _295  and  _296
REMARK  114  A    between atoms: _295  and  _298
REMARK  115  A    between atoms: _298  and  _299
REMARK  116  A    between atoms: _299  and  _300
REMARK  117  A    between atoms: _300  and  _301
REMARK  118  A    between atoms: _310  and  _312
REMARK  119  A    between atoms: _312  and  _313
REMARK  120  A    between atoms: _312  and  _315
REMARK  121  A    between atoms: _315  and  _316
REMARK  122  A    between atoms: _316  and  _317
REMARK  123  A    between atoms: _317  and  _318
REMARK  124  A    between atoms: _318  and  _319
REMARK  125  A    between atoms: _323  and  _325
REMARK  126  A    between atoms: _325  and  _326
REMARK  127  A    between atoms: _329  and  _331
REMARK  128  A    between atoms: _331  and  _332
REMARK  129  A    between atoms: _331  and  _334
REMARK  130  A    between atoms: _334  and  _335
REMARK  131  A    between atoms: _335  and  _336
REMARK  132  A    between atoms: _339  and  _341
REMARK  133  A    between atoms: _341  and  _342
REMARK  134  A    between atoms: _341  and  _344
REMARK  135  A    between atoms: _344  and  _345
REMARK  136  A    between atoms: _345  and  _346
REMARK  137  A    between atoms: _346  and  _347
REMARK  138  A    between atoms: _356  and  _358
REMARK  139  A    between atoms: _358  and  _359
REMARK  140  A    between atoms: _358  and  _361
REMARK  141  A    between atoms: _361  and  _362
REMARK  142  A    between atoms: _372  and  _374
REMARK  143  A    between atoms: _374  and  _375
REMARK  144  A    between atoms: _378  and  _379
REMARK  145  A    between atoms: _384  and  _386
REMARK  146  A    between atoms: _386  and  _387
REMARK  147  A    between atoms: _386  and  _389
REMARK  148  A    between atoms: _389  and  _390
REMARK  149  A    between atoms: _390  and  _391
REMARK  150  A    between atoms: _391  and  _392
REMARK  151  A    between atoms: _401  and  _403
REMARK  152  A    between atoms: _403  and  _404
REMARK  153  A    between atoms: _403  and  _406
REMARK  154  A    between atoms: _406  and  _407
REMARK  155  A    between atoms: _410  and  _412
REMARK  156  A    between atoms: _412  and  _413
REMARK  157  A    between atoms: _412  and  _415
REMARK  158  A    between atoms: _415  and  _416
REMARK  159  A    between atoms: _419  and  _421
REMARK  160  A    between atoms: _421  and  _422
REMARK  161  A    between atoms: _421  and  _424
REMARK  162  A    between atoms: _424  and  _425
REMARK  163  A    between atoms: _428  and  _430
REMARK  164  A    between atoms: _430  and  _431
REMARK  165  A    between atoms: _430  and  _433
REMARK  166  A    between atoms: _433  and  _434
REMARK  167  A    between atoms: _437  and  _439
REMARK  168  A    between atoms: _439  and  _440
REMARK  169  A    between atoms: _439  and  _442
REMARK  170  A    between atoms: _442  and  _443
REMARK  171  A    between atoms: _446  and  _448
REMARK  172  A    between atoms: _448  and  _449
REMARK  173  A    between atoms: _448  and  _451
REMARK  174  A    between atoms: _451  and  _452
REMARK  175  A    between atoms: _452  and  _453
REMARK  176  A    between atoms: _455  and  _457
REMARK  177  A    between atoms: _457  and  _458
REMARK  178  A    between atoms: _457  and  _460
REMARK  179  A    between atoms: _460  and  _461
REMARK  180  A    between atoms: _464  and  _466
REMARK  181  A    between atoms: _466  and  _467
REMARK  182  A    between atoms: _466  and  _469
REMARK  183  A    between atoms: _469  and  _470
REMARK  184  A    between atoms: _476  and  _478
REMARK  185  A    between atoms: _478  and  _479
REMARK  186  A    between atoms: _478  and  _481
REMARK  187  A    between atoms: _481  and  _482
REMARK  188  A    between atoms: _485  and  _487
REMARK  189  A    between atoms: _487  and  _488
REMARK  190  A    between atoms: _487  and  _490
REMARK  191  A    between atoms: _490  and  _491
REMARK  192  A    between atoms: _494  and  _496
REMARK  193  A    between atoms: _496  and  _497
REMARK  194  A    between atoms: _496  and  _499
REMARK  195  A    between atoms: _499  and  _500
REMARK  196  A    between atoms: _500  and  _501
REMARK  197  A    between atoms: _504  and  _506
REMARK  198  A    between atoms: _506  and  _507
REMARK  199  A    between atoms: _506  and  _509
REMARK  200  A    between atoms: _509  and  _510
REMARK  201  A    between atoms: _510  and  _511
REMARK  202  A    between atoms: _511  and  _512
REMARK  203  A    between atoms: _521  and  _523
REMARK  204  A    between atoms: _523  and  _524
REMARK  205  A    between atoms: _523  and  _526
REMARK  206  A    between atoms: _526  and  _527
REMARK  207  A    between atoms: _530  and  _532
REMARK  208  A    between atoms: _532  and  _533
REMARK  209  A    between atoms: _532  and  _535
REMARK  210  A    between atoms: _535  and  _536
REMARK  211  A    between atoms: _539  and  _541
REMARK  212  A    between atoms: _541  and  _542
REMARK  213  A    between atoms: _541  and  _544
REMARK  214  A    between atoms: _548  and  _549
REMARK  215  A    between atoms: _554  and  _556
REMARK  216  A    between atoms: _556  and  _557
REMARK  217  A    between atoms: _556  and  _559
REMARK  218  A    between atoms: _559  and  _560
REMARK  219  A    between atoms: _565  and  _567
REMARK  220  A    between atoms: _567  and  _568
REMARK  221  A    between atoms: _567  and  _570
REMARK  222  A    between atoms: _570  and  _571
REMARK  223  A    between atoms: _576  and  _577
REMARK  224  A    between atoms: _579  and  _581
REMARK  225  A    between atoms: _581  and  _582
REMARK  226  A    between atoms: _581  and  _584
REMARK  227  A    between atoms: _584  and  _585
REMARK  228  A    between atoms: _588  and  _590
REMARK  229  A    between atoms: _590  and  _591
REMARK  230  A    between atoms: _590  and  _593
REMARK  231  A    between atoms: _593  and  _594
REMARK  232  A    between atoms: _594  and  _595
REMARK  233  A    between atoms: _595  and  _596
REMARK  234  A    between atoms: _605  and  _607
REMARK  235  A    between atoms: _607  and  _608
REMARK  236  A    between atoms: _610  and  _612
REMARK  237  A    between atoms: _612  and  _613
REMARK  238  A    between atoms: _612  and  _615
REMARK  239  A    between atoms: _615  and  _616
REMARK  240  A    between atoms: _622  and  _624
REMARK  241  A    between atoms: _624  and  _625
REMARK  242  A    between atoms: _624  and  _627
REMARK  243  A    between atoms: _627  and  _628
REMARK  244  A    between atoms: _628  and  _629
REMARK  245  A    between atoms: _631  and  _633
REMARK  246  A    between atoms: _633  and  _634
REMARK  247  A    between atoms: _633  and  _636
REMARK  248  A    between atoms: _636  and  _637
REMARK                            x       y       z     vdW  Elec       q    Type
REMARK                         _______ _______ _______ _____ _____    ______ ____
ROOT
ATOM      1  C   GLU A   1      12.719  19.996  20.178  0.00  0.00    +0.238 C 
ATOM      2  N   LEU A   2      12.468  19.237  21.249  0.00  0.00    -0.298 N 
ATOM      3  H   LEU A   2      12.324  18.213  21.137  0.00  0.00    +0.150 HD
ATOM      4  O   GLU A   1      12.872  21.194  20.252  0.00  0.00    -0.274 OA
ENDROOT
BRANCH   1   5
ATOM      5  CA  GLU A   1      12.787  19.311  18.815  0.00  0.00    +0.145 C 
BRANCH   5   6
ATOM      6  N   GLU A   1      13.515  18.065  18.880  0.00  0.00    -0.238 NA
ATOM      7  H   GLU A   1      13.052  17.187  18.571  0.00  0.00    +0.142 HD
ENDBRANCH   5   6
BRANCH   5   8
ATOM      8  CB  GLU A   1      11.349  19.094  18.297  0.00  0.00    +0.038 C 
BRANCH   8   9
ATOM      9  CG  GLU A   1      11.278  18.777  16.800  0.00  0.00    +0.116 C 
BRANCH   9  10
ATOM     10  CD  GLU A   1       9.866  18.524  16.311  0.00  0.00    +0.365 C 
ATOM     11  OE2 GLU A   1       9.057  17.979  17.089  0.00  0.00    -0.246 OA
ATOM     12  OE1 GLU A   1       9.564  18.871  15.145  0.00  0.00    -0.246 OA
ENDBRANCH   9  10
ENDBRANCH   8   9
ENDBRANCH   5   8
ENDBRANCH   1   5
BRANCH   2  13
ATOM     13  CA  LEU A   2      12.395  19.844  22.581  0.00  0.00    +0.137 C 
BRANCH  13  14
ATOM     14  C   LEU A   2      13.751  20.337  23.066  0.00  0.00    +0.227 C 
ATOM     15  O   LEU A   2      13.859  21.397  23.682  0.00  0.00    -0.286 OA
ENDBRANCH  13  14
BRANCH  13  16
ATOM     16  CB  LEU A   2      11.845  18.835  23.587  0.00  0.00    +0.028 C 
BRANCH  16  17
ATOM     17  CG  LEU A   2      10.356  18.524  23.475  0.00  0.00    +0.002 C 
ATOM     18  CD2 LEU A   2      10.052  17.361  24.403  0.00  0.00    +0.000 C 
ATOM     19  CD1 LEU A   2       9.442  19.735  23.775  0.00  0.00    +0.000 C 
ENDBRANCH  16  17
ENDBRANCH  13  16
ENDBRANCH   2  13
TORSDOF 9
REMARK  Name = ../refined-set-2016/4f7v/4f7v_pocket.pdb
REMARK  248 active torsions:
REMARK  status: ('A' for Active; 'I' for Inactive)
REMARK    1  A    between atoms: _1  and  _3
REMARK    2  A    between atoms: _3  and  _4
REMARK    3  A    between atoms: _3  and  _6
REMARK    4  A    between atoms: _6  and  _7
REMARK    5  A    between atoms: _12  and  _13
REMARK    6  A    between atoms: _15  and  _17
REMARK    7  A    between atoms: _17  and  _18
REMARK    8  A    between atoms: _17  and  _20
REMARK    9  A    between atoms: _20  and  _21
REMARK   10  A    between atoms: _24  and  _26
REMARK   11  A    between atoms: _26  and  _27
REMARK   12  A    between atoms: _30  and  _32
REMARK   13  A    between atoms: _32  and  _33
REMARK   14  A    between atoms: _32  and  _35
REMARK   15  A    between atoms: _35  and  _36
REMARK   16  A    between atoms: _39  and  _41
REMARK   17  A    between atoms: _41  and  _42
REMARK   18  A    between atoms: _44  and  _46
REMARK   19  A    between atoms: _46  and  _47
REMARK   20  A    between atoms: _46  and  _49
REMARK   21  A    between atoms: _49  and  _50
REMARK   22  A    between atoms: _52  and  _54
REMARK   23  A    between atoms: _54  and  _55
REMARK   24  A    between atoms: _54  and  _57
REMARK   25  A    between atoms: _57  and  _58
REMARK   26  A    between atoms: _63  and  _65
REMARK   27  A    between atoms: _65  and  _66
REMARK   28  A    between atoms: _65  and  _68
REMARK   29  A    between atoms: _68  and  _69
REMARK   30  A    between atoms: _74  and  _75
REMARK   31  A    between atoms: _77  and  _79
REMARK   32  A    between atoms: _79  and  _80
REMARK   33  A    between atoms: _79  and  _82
REMARK   34  A    between atoms: _82  and  _83
REMARK   35  A    between atoms: _83  and  _84
REMARK   36  A    between atoms: _84  and  _85
REMARK   37  A    between atoms: _94  and  _96
REMARK   38  A    between atoms: _96  and  _97
REMARK   39  A    between atoms: _96  and  _99
REMARK   40  A    between atoms: _99  and  _100
REMARK   41  A    between atoms: _104  and  _105
REMARK   42  A    between atoms: _111  and  _112
REMARK   43  A    between atoms: _117  and  _119
REMARK   44  A    between atoms: _119  and  _120
REMARK   45  A    between atoms: _119  and  _122
REMARK   46  A    between atoms: _122  and  _123
REMARK   47  A    between atoms: _126  and  _128
REMARK   48  A    between atoms: _128  and  _129
REMARK   49  A    between atoms: _132  and  _133
REMARK   50  A    between atoms: _138  and  _140
REMARK   51  A    between atoms: _140  and  _141
REMARK   52  A    between atoms: _140  and  _143
REMARK   53  A    between atoms: _143  and  _144
REMARK   54  A    between atoms: _144  and  _145
REMARK   55  A    between atoms: _150  and  _152
REMARK   56  A    between atoms: _152  and  _153
REMARK   57  A    between atoms: _152  and  _155
REMARK   58  A    between atoms: _155  and  _156
REMARK   59  A    between atoms: _156  and  _157
REMARK   60  A    between atoms: _163  and  _164
REMARK   61  A    between atoms: _169  and  _171
REMARK   62  A    between atoms: _171  and  _172
REMARK   63  A    between atoms: _171  and  _174
REMARK   64  A    between atoms: _174  and  _175
REMARK   65  A    between atoms: _178  and  _180
REMARK   66  A    between atoms: _180  and  _181
REMARK   67  A    between atoms: _180  and  _183
REMARK   68  A    between atoms: _183  and  _184
REMARK   69  A    between atoms: _189  and  _190
REMARK   70  A    between atoms: _192  and  _194
REMARK   71  A    between atoms: _194  and  _195
REMARK   72  A    between atoms: _194  and  _197
REMARK   73  A    between atoms: _197  and  _198
REMARK   74  A    between atoms: _201  and  _203
REMARK   75  A    between atoms: _203  and  _204
REMARK   76  A    between atoms: _203  and  _206
REMARK   77  A    between atoms: _206  and  _207
REMARK   78  A    between atoms: _212  and  _214
REMARK   79  A    between atoms: _214  and  _215
REMARK   80  A    between atoms: _218  and  _220
REMARK   81  A    between atoms: _220  and  _221
REMARK   82  A    between atoms: _220  and  _223
REMARK   83  A    between atoms: _223  and  _224
REMARK   84  A    between atoms: _227  and  _229
REMARK   85  A    between atoms: _229  and  _230
REMARK   86  A    between atoms: _229  and  _232
REMARK   87  A    between atoms: _232  and  _233
REMARK   88  A    between atoms: _236  and  _238
REMARK   89  A    between atoms: _238  and  _239
REMARK   90  A    between atoms: _238  and  _241
REMARK   91  A    between atoms: _241  and  _242
REMARK   92  A    between atoms: _245  and  _247
REMARK   93  A    between atoms: _247  and  _248
REMARK   94  A    between atoms: _247  and  _250
REMARK   95  A    between atoms: _250  and  _251
REMARK   96  A    between atoms: _251  and  _252
REMARK   97  A    between atoms: _257  and  _259
REMARK   98  A    between atoms: _259  and  _260
REMARK   99  A    between atoms: _259  and  _262
REMARK  100  A    between atoms: _262  and  _263
REMARK  101  A    between atoms: _263  and  _264
REMARK  102  A    between atoms: _264  and  _265
REMARK  103  A    between atoms: _274  and  _276
REMARK  104  A    between atoms: _276  and  _277
REMARK  105  A    between atoms: _276  and  _279
REMARK  106  A    between atoms: _279  and  _280
REMARK  107  A    between atoms: _280  and  _281
REMARK  108  A    between atoms: _284  and  _286
REMARK  109  A    between atoms: _286  and  _287
REMARK  110  A    between atoms: _286  and  _289
REMARK  111  A    between atoms: _289  and  _290
REMARK  112  A    between atoms: _293  and  _295
REMARK  113  A    between atoms: _295  and  _296
REMARK  114  A    between atoms: _295  and  _298
REMARK  115  A    between atoms: _298  and  _299
REMARK  116  A    between atoms: _299  and  _300
REMARK  117  A    between atoms: _300  and  _301
REMARK  118  A    between atoms: _310  and  _312
REMARK  119  A    between atoms: _312  and  _313
REMARK  120  A    between atoms: _312  and  _315
REMARK  121  A    between atoms: _315  and  _316
REMARK  122  A    between atoms: _316  and  _317
REMARK  123  A    between atoms: _317  and  _318
REMARK  124  A    between atoms: _318  and  _319
REMARK  125  A    between atoms: _323  and  _325
REMARK  126  A    between atoms: _325  and  _326
REMARK  127  A    between atoms: _329  and  _331
REMARK  128  A    between atoms: _331  and  _332
REMARK  129  A    between atoms: _331  and  _334
REMARK  130  A    between atoms: _334  and  _335
REMARK  131  A    between atoms: _335  and  _336
REMARK  132  A    between atoms: _339  and  _341
REMARK  133  A    between atoms: _341  and  _342
REMARK  134  A    between atoms: _341  and  _344
REMARK  135  A    between atoms: _344  and  _345
REMARK  136  A    between atoms: _345  and  _346
REMARK  137  A    between atoms: _346  and  _347
REMARK  138  A    between atoms: _356  and  _358
REMARK  139  A    between atoms: _358  and  _359
REMARK  140  A    between atoms: _358  and  _361
REMARK  141  A    between atoms: _361  and  _362
REMARK  142  A    between atoms: _372  and  _374
REMARK  143  A    between atoms: _374  and  _375
REMARK  144  A    between atoms: _378  and  _379
REMARK  145  A    between atoms: _384  and  _386
REMARK  146  A    between atoms: _386  and  _387
REMARK  147  A    between atoms: _386  and  _389
REMARK  148  A    between atoms: _389  and  _390
REMARK  149  A    between atoms: _390  and  _391
REMARK  150  A    between atoms: _391  and  _392
REMARK  151  A    between atoms: _401  and  _403
REMARK  152  A    between atoms: _403  and  _404
REMARK  153  A    between atoms: _403  and  _406
REMARK  154  A    between atoms: _406  and  _407
REMARK  155  A    between atoms: _410  and  _412
REMARK  156  A    between atoms: _412  and  _413
REMARK  157  A    between atoms: _412  and  _415
REMARK  158  A    between atoms: _415  and  _416
REMARK  159  A    between atoms: _419  and  _421
REMARK  160  A    between atoms: _421  and  _422
REMARK  161  A    between atoms: _421  and  _424
REMARK  162  A    between atoms: _424  and  _425
REMARK  163  A    between atoms: _428  and  _430
REMARK  164  A    between atoms: _430  and  _431
REMARK  165  A    between atoms: _430  and  _433
REMARK  166  A    between atoms: _433  and  _434
REMARK  167  A    between atoms: _437  and  _439
REMARK  168  A    between atoms: _439  and  _440
REMARK  169  A    between atoms: _439  and  _442
REMARK  170  A    between atoms: _442  and  _443
REMARK  171  A    between atoms: _446  and  _448
REMARK  172  A    between atoms: _448  and  _449
REMARK  173  A    between atoms: _448  and  _451
REMARK  174  A    between atoms: _451  and  _452
REMARK  175  A    between atoms: _452  and  _453
REMARK  176  A    between atoms: _455  and  _457
REMARK  177  A    between atoms: _457  and  _458
REMARK  178  A    between atoms: _457  and  _460
REMARK  179  A    between atoms: _460  and  _461
REMARK  180  A    between atoms: _464  and  _466
REMARK  181  A    between atoms: _466  and  _467
REMARK  182  A    between atoms: _466  and  _469
REMARK  183  A    between atoms: _469  and  _470
REMARK  184  A    between atoms: _476  and  _478
REMARK  185  A    between atoms: _478  and  _479
REMARK  186  A    between atoms: _478  and  _481
REMARK  187  A    between atoms: _481  and  _482
REMARK  188  A    between atoms: _485  and  _487
REMARK  189  A    between atoms: _487  and  _488
REMARK  190  A    between atoms: _487  and  _490
REMARK  191  A    between atoms: _490  and  _491
REMARK  192  A    between atoms: _494  and  _496
REMARK  193  A    between atoms: _496  and  _497
REMARK  194  A    between atoms: _496  and  _499
REMARK  195  A    between atoms: _499  and  _500
REMARK  196  A    between atoms: _500  and  _501
REMARK  197  A    between atoms: _504  and  _506
REMARK  198  A    between atoms: _506  and  _507
REMARK  199  A    between atoms: _506  and  _509
REMARK  200  A    between atoms: _509  and  _510
REMARK  201  A    between atoms: _510  and  _511
REMARK  202  A    between atoms: _511  and  _512
REMARK  203  A    between atoms: _521  and  _523
REMARK  204  A    between atoms: _523  and  _524
REMARK  205  A    between atoms: _523  and  _526
REMARK  206  A    between atoms: _526  and  _527
REMARK  207  A    between atoms: _530  and  _532
REMARK  208  A    between atoms: _532  and  _533
REMARK  209  A    between atoms: _532  and  _535
REMARK  210  A    between atoms: _535  and  _536
REMARK  211  A    between atoms: _539  and  _541
REMARK  212  A    between atoms: _541  and  _542
REMARK  213  A    between atoms: _541  and  _544
REMARK  214  A    between atoms: _548  and  _549
REMARK  215  A    between atoms: _554  and  _556
REMARK  216  A    between atoms: _556  and  _557
REMARK  217  A    between atoms: _556  and  _559
REMARK  218  A    between atoms: _559  and  _560
REMARK  219  A    between atoms: _565  and  _567
REMARK  220  A    between atoms: _567  and  _568
REMARK  221  A    between atoms: _567  and  _570
REMARK  222  A    between atoms: _570  and  _571
REMARK  223  A    between atoms: _576  and  _577
REMARK  224  A    between atoms: _579  and  _581
REMARK  225  A    between atoms: _581  and  _582
REMARK  226  A    between atoms: _581  and  _584
REMARK  227  A    between atoms: _584  and  _585
REMARK  228  A    between atoms: _588  and  _590
REMARK  229  A    between atoms: _590  and  _591
REMARK  230  A    between atoms: _590  and  _593
REMARK  231  A    between atoms: _593  and  _594
REMARK  232  A    between atoms: _594  and  _595
REMARK  233  A    between atoms: _595  and  _596
REMARK  234  A    between atoms: _605  and  _607
REMARK  235  A    between atoms: _607  and  _608
REMARK  236  A    between atoms: _610  and  _612
REMARK  237  A    between atoms: _612  and  _613
REMARK  238  A    between atoms: _612  and  _615
REMARK  239  A    between atoms: _615  and  _616
REMARK  240  A    between atoms: _622  and  _624
REMARK  241  A    between atoms: _624  and  _625
REMARK  242  A    between atoms: _624  and  _627
REMARK  243  A    between atoms: _627  and  _628
REMARK  244  A    between atoms: _628  and  _629
REMARK  245  A    between atoms: _631  and  _633
REMARK  246  A    between atoms: _633  and  _634
REMARK  247  A    between atoms: _633  and  _636
REMARK  248  A    between atoms: _636  and  _637
REMARK                            x       y       z     vdW  Elec       q    Type
REMARK                         _______ _______ _______ _____ _____    ______ ____
ROOT
ATOM      1  CA  ARG A   5       0.958  28.152  13.799  0.00  0.00    +0.149 C 
ENDROOT
BRANCH   1   3
ATOM      2  C   GLU A   4       2.955  28.804  15.088  0.00  0.00    +0.241 C 
ATOM      3  N   ARG A   5       1.630  28.868  14.882  0.00  0.00    -0.297 N 
ATOM      4  H   ARG A   5       1.056  29.453  15.522  0.00  0.00    +0.150 HD
ATOM      5  O   GLU A   4       3.764  28.448  14.224  0.00  0.00    -0.273 OA
BRANCH   2   6
ATOM      6  CA  GLU A   4       3.437  29.210  16.484  0.00  0.00    +0.149 C 
BRANCH   6   9
ATOM      7  C   ALA A   3       3.804  26.960  17.184  0.00  0.00    +0.241 C 
ATOM      8  O   ALA A   3       2.592  26.739  17.158  0.00  0.00    -0.273 OA
ATOM      9  N   GLU A   4       4.378  28.180  16.902  0.00  0.00    -0.297 N 
ATOM     10  H   GLU A   4       5.401  28.352  16.981  0.00  0.00    +0.150 HD
BRANCH   7  11
ATOM     11  CA  ALA A   3       4.774  25.844  17.535  0.00  0.00    +0.149 C 
ATOM     12  CB  ALA A   3       4.549  25.385  18.971  0.00  0.00    +0.031 C 
BRANCH  11  14
ATOM     13  C   LYS A   2       6.966  25.527  16.546  0.00  0.00    +0.241 C 
ATOM     14  N   ALA A   3       6.167  26.234  17.344  0.00  0.00    -0.297 N 
ATOM     15  H   ALA A   3       6.540  27.072  17.835  0.00  0.00    +0.150 HD
ATOM     16  O   LYS A   2       6.559  24.567  15.895  0.00  0.00    -0.273 OA
BRANCH  13  17
ATOM     17  CA  LYS A   2       8.448  25.903  16.498  0.00  0.00    +0.149 C 
BRANCH  17  19
ATOM     18  C   ARG A   1       8.166  28.169  17.421  0.00  0.00    +0.238 C 
ATOM     19  N   LYS A   2       8.802  26.990  17.424  0.00  0.00    -0.297 N 
ATOM     20  H   LYS A   2       9.573  26.838  18.105  0.00  0.00    +0.150 HD
ATOM     21  O   ARG A   1       7.198  28.406  16.686  0.00  0.00    -0.274 OA
BRANCH  18  22
ATOM     22  CA  ARG A   1       8.640  29.212  18.449  0.00  0.00    +0.145 C 
BRANCH  22  23
ATOM     23  N   ARG A   1       8.739  28.494  19.701  0.00  0.00    -0.238 NA
ATOM     24  H   ARG A   1       9.665  28.121  19.992  0.00  0.00    +0.142 HD
ENDBRANCH  22  23
BRANCH  22  25
ATOM     25  CB  ARG A   1      10.009  29.794  18.082  0.00  0.00    +0.030 C 
BRANCH  25  26
ATOM     26  CG  ARG A   1      10.005  31.131  17.343  0.00  0.00    +0.045 C 
BRANCH  26  27
ATOM     27  CD  ARG A   1      11.448  31.672  17.231  0.00  0.00    +0.174 C 
BRANCH  27  28
ATOM     28  NE  ARG A   1      11.642  32.745  16.248  0.00  0.00    -0.265 N 
ATOM     29  HE  ARG A   1      11.270  33.688  16.479  0.00  0.00    +0.259 HD
ATOM     30  CZ  ARG A   1      12.264  32.590  15.079  0.00  0.00    +0.342 C 
ATOM     31  NH2 ARG A   1      12.738  31.401  14.726  0.00  0.00    -0.292 N 
ATOM     32 HH21 ARG A   1      12.625  30.586  15.362  0.00  0.00    +0.255 HD
ATOM     33 HH22 ARG A   1      13.223  31.284  13.813  0.00  0.00    +0.255 HD
ATOM     34  NH1 ARG A   1      12.408  33.617  14.248  0.00  0.00    -0.292 N 
ATOM     35 HH11 ARG A   1      12.034  34.552  14.507  0.00  0.00    +0.255 HD
ATOM     36 HH12 ARG A   1      12.895  33.486  13.338  0.00  0.00    +0.255 HD
ENDBRANCH  27  28
ENDBRANCH  26  27
ENDBRANCH  25  26
ENDBRANCH  22  25
ENDBRANCH  18  22
ENDBRANCH  17  19
BRANCH  17  37
ATOM     37  CB  LYS A   2       9.263  24.624  16.783  0.00  0.00    +0.029 C 
BRANCH  37  38
ATOM     38  CG  LYS A   2       8.512  23.565  17.643  0.00  0.00    +0.000 C 
BRANCH  38  39
ATOM     39  CD  LYS A   2       8.652  22.118  17.135  0.00  0.00    -0.024 C 
BRANCH  39  40
ATOM     40  CE  LYS A   2       7.620  21.189  17.810  0.00  0.00    -0.086 C 
BRANCH  40  41
ATOM     41  NZ  LYS A   2       6.400  20.866  16.970  0.00  0.00    +0.380 N 
ATOM     42  HZ1 LYS A   2       5.767  20.239  17.506  0.00  0.00    -0.089 HD
ATOM     43  HZ2 LYS A   2       5.899  21.747  16.735  0.00  0.00    -0.089 HD
ATOM     44  HZ3 LYS A   2       6.699  20.392  16.094  0.00  0.00    -0.089 HD
ENDBRANCH  40  41
ENDBRANCH  39  40
ENDBRANCH  38  39
ENDBRANCH  37  38
ENDBRANCH  17  37
ENDBRANCH  13  17
ENDBRANCH  11  14
ENDBRANCH   7  11
ENDBRANCH   6   9
BRANCH   6  45
ATOM     45  CB  GLU A   4       4.081  30.598  16.474  0.00  0.00    +0.041 C 
BRANCH  45  46
ATOM     46  CG  GLU A   4       3.752  31.445  17.694  0.00  0.00    +0.116 C 
BRANCH  46  47
ATOM     47  CD  GLU A   4       4.978  32.121  18.281  0.00  0.00    +0.365 C 
ATOM     48  OE2 GLU A   4       5.817  31.417  18.880  0.00  0.00    -0.246 OA
ATOM     49  OE1 GLU A   4       5.102  33.355  18.139  0.00  0.00    -0.246 OA
ENDBRANCH  46  47
ENDBRANCH  45  46
ENDBRANCH   6  45
ENDBRANCH   2   6
ENDBRANCH   1   3
BRANCH   1  50
ATOM     50  C   ARG A   5       1.481  28.531  12.419  0.00  0.00    +0.241 C 
ATOM     51  N   TRP A   6       1.738  29.819  12.209  0.00  0.00    -0.297 N 
ATOM     52  H   TRP A   6       1.563  30.506  12.970  0.00  0.00    +0.150 HD
ATOM     53  O   ARG A   5       1.645  27.662  11.556  0.00  0.00    -0.273 OA
BRANCH  51  54
ATOM     54  CA  TRP A   6       2.262  30.285  10.929  0.00  0.00    +0.153 C 
BRANCH  54  55
ATOM     55  C   TRP A   6       3.685  30.805  11.086  0.00  0.00    +0.241 C 
ATOM     56  N   GLY A   7       4.346  30.334  12.144  0.00  0.00    -0.295 N 
ATOM     57  H   GLY A   7       3.864  29.668  12.781  0.00  0.00    +0.150 HD
ATOM     58  O   TRP A   6       4.169  31.597  10.266  0.00  0.00    -0.273 OA
BRANCH  56  59
ATOM     59  CA  GLY A   7       5.713  30.717  12.439  0.00  0.00    +0.176 C 
BRANCH  59  60
ATOM     60  C   GLY A   7       5.791  31.865  13.429  0.00  0.00    +0.246 C 
ATOM     61  N   PRO A   8       7.007  32.176  13.900  0.00  0.00    -0.272 N 
ATOM     62  CD  PRO A   8       7.231  33.365  14.737  0.00  0.00    +0.094 C 
ATOM     63  CG  PRO A   8       8.569  33.109  15.322  0.00  0.00    +0.024 C 
ATOM     64  CB  PRO A   8       9.321  32.379  14.253  0.00  0.00    +0.031 C 
ATOM     65  CA  PRO A   8       8.272  31.511  13.550  0.00  0.00    +0.152 C 
ATOM     66  O   GLY A   7       4.772  32.480  13.761  0.00  0.00    -0.273 OA
BRANCH  65  67
ATOM     67  C   PRO A   8       8.379  30.057  14.025  0.00  0.00    +0.241 C 
ATOM     68  O   PRO A   8       7.522  29.611  14.786  0.00  0.00    -0.273 OA
ATOM     69  N   ARG A   9       9.401  29.334  13.560  0.00  0.00    -0.298 N 
ATOM     70  H   ARG A   9      10.066  29.776  12.894  0.00  0.00    +0.150 HD
BRANCH  69  71
ATOM     71  CA  ARG A   9       9.620  27.936  13.956  0.00  0.00    +0.137 C 
BRANCH  71  72
ATOM     72  C   ARG A   9      11.087  27.740  14.328  0.00  0.00    +0.227 C 
ATOM     73  O   ARG A   9      11.963  27.845  13.485  0.00  0.00    -0.286 OA
ENDBRANCH  71  72
BRANCH  71  74
ATOM     74  CB  ARG A   9       9.268  26.964  12.815  0.00  0.00    +0.031 C 
BRANCH  74  75
ATOM     75  CG  ARG A   9       7.839  27.076  12.251  0.00  0.00    +0.045 C 
BRANCH  75  76
ATOM     76  CD  ARG A   9       6.743  26.796  13.271  0.00  0.00    +0.174 C 
BRANCH  76  77
ATOM     77  NE  ARG A   9       6.582  25.366  13.529  0.00  0.00    -0.265 N 
ATOM     78  CZ  ARG A   9       5.448  24.787  13.922  0.00  0.00    +0.342 C 
ATOM     79  NH2 ARG A   9       5.421  23.473  14.135  0.00  0.00    -0.292 N 
ATOM     80 HH21 ARG A   9       4.540  23.014  14.442  0.00  0.00    +0.255 HD
ATOM     81 HH22 ARG A   9       6.281  22.906  13.995  0.00  0.00    +0.255 HD
ATOM     82  NH1 ARG A   9       4.350  25.511  14.129  0.00  0.00    -0.292 N 
ATOM     83 HH11 ARG A   9       3.471  25.047  14.436  0.00  0.00    +0.255 HD
ATOM     84 HH12 ARG A   9       4.371  26.541  13.984  0.00  0.00    +0.255 HD
ATOM     85  HE  ARG A   9       7.414  24.756  13.396  0.00  0.00    +0.259 HD
ENDBRANCH  76  77
ENDBRANCH  75  76
ENDBRANCH  74  75
ENDBRANCH  71  74
ENDBRANCH  69  71
ENDBRANCH  65  67
ENDBRANCH  59  60
ENDBRANCH  56  59
ENDBRANCH  54  55
BRANCH  54  86
ATOM     86  CB  TRP A   6       1.339  31.349  10.319  0.00  0.00    +0.057 C 
BRANCH  86  87
ATOM     87  CG  TRP A   6      -0.023  30.800  10.039  0.00  0.00    -0.002 A 
ATOM     88  CD1 TRP A   6      -1.198  31.149  10.646  0.00  0.00    +0.068 A 
ATOM     89  NE1 TRP A   6      -2.232  30.405  10.132  0.00  0.00    -0.352 N 
ATOM     90  HE1 TRP A   6      -3.229  30.478  10.419  0.00  0.00    +0.166 HD
ATOM     91  CE2 TRP A   6      -1.739  29.551   9.180  0.00  0.00    +0.056 A 
ATOM     92  CZ2 TRP A   6      -2.394  28.610   8.386  0.00  0.00    +0.017 A 
ATOM     93  CH2 TRP A   6      -1.633  27.889   7.506  0.00  0.00    +0.001 A 
ATOM     94  CZ3 TRP A   6      -0.247  28.085   7.404  0.00  0.00    +0.000 A 
ATOM     95  CE3 TRP A   6       0.401  29.014   8.187  0.00  0.00    +0.001 A 
ATOM     96  CD2 TRP A   6      -0.349  29.769   9.096  0.00  0.00    +0.013 A 
ENDBRANCH  86  87
ENDBRANCH  54  86
ENDBRANCH  51  54
ENDBRANCH   1  50
BRANCH   1  97
ATOM     97  CB  ARG A   5      -0.561  28.373  13.870  0.00  0.00    +0.033 C 
BRANCH  97  98
ATOM     98  CG  ARG A   5      -1.387  27.383  13.040  0.00  0.00    +0.045 C 
BRANCH  98  99
ATOM     99  CD  ARG A   5      -2.892  27.489  13.328  0.00  0.00    +0.174 C 
BRANCH  99 100
ATOM    100  NE  ARG A   5      -3.426  28.826  13.059  0.00  0.00    -0.265 N 
ATOM    101  CZ  ARG A   5      -4.714  29.164  13.132  0.00  0.00    +0.342 C 
ATOM    102  NH2 ARG A   5      -5.636  28.262  13.459  0.00  0.00    -0.292 N 
ATOM    103 HH21 ARG A   5      -5.355  27.281  13.661  0.00  0.00    +0.255 HD
ATOM    104 HH22 ARG A   5      -6.637  28.538  13.513  0.00  0.00    +0.255 HD
ATOM    105  NH1 ARG A   5      -5.086  30.412  12.864  0.00  0.00    -0.292 N 
ATOM    106 HH11 ARG A   5      -6.090  30.679  12.920  0.00  0.00    +0.255 HD
ATOM    107 HH12 ARG A   5      -4.373  31.121  12.598  0.00  0.00    +0.255 HD
ATOM    108  HE  ARG A   5      -2.749  29.568  12.791  0.00  0.00    +0.259 HD
ENDBRANCH  99 100
ENDBRANCH  98  99
ENDBRANCH  97  98
ENDBRANCH   1  97
TORSDOF 39
REMARK  Name = ../refined-set-2016/4f7v/4f7v_pocket.pdb
REMARK  248 active torsions:
REMARK  status: ('A' for Active; 'I' for Inactive)
REMARK    1  A    between atoms: _1  and  _3
REMARK    2  A    between atoms: _3  and  _4
REMARK    3  A    between atoms: _3  and  _6
REMARK    4  A    between atoms: _6  and  _7
REMARK    5  A    between atoms: _12  and  _13
REMARK    6  A    between atoms: _15  and  _17
REMARK    7  A    between atoms: _17  and  _18
REMARK    8  A    between atoms: _17  and  _20
REMARK    9  A    between atoms: _20  and  _21
REMARK   10  A    between atoms: _24  and  _26
REMARK   11  A    between atoms: _26  and  _27
REMARK   12  A    between atoms: _30  and  _32
REMARK   13  A    between atoms: _32  and  _33
REMARK   14  A    between atoms: _32  and  _35
REMARK   15  A    between atoms: _35  and  _36
REMARK   16  A    between atoms: _39  and  _41
REMARK   17  A    between atoms: _41  and  _42
REMARK   18  A    between atoms: _44  and  _46
REMARK   19  A    between atoms: _46  and  _47
REMARK   20  A    between atoms: _46  and  _49
REMARK   21  A    between atoms: _49  and  _50
REMARK   22  A    between atoms: _52  and  _54
REMARK   23  A    between atoms: _54  and  _55
REMARK   24  A    between atoms: _54  and  _57
REMARK   25  A    between atoms: _57  and  _58
REMARK   26  A    between atoms: _63  and  _65
REMARK   27  A    between atoms: _65  and  _66
REMARK   28  A    between atoms: _65  and  _68
REMARK   29  A    between atoms: _68  and  _69
REMARK   30  A    between atoms: _74  and  _75
REMARK   31  A    between atoms: _77  and  _79
REMARK   32  A    between atoms: _79  and  _80
REMARK   33  A    between atoms: _79  and  _82
REMARK   34  A    between atoms: _82  and  _83
REMARK   35  A    between atoms: _83  and  _84
REMARK   36  A    between atoms: _84  and  _85
REMARK   37  A    between atoms: _94  and  _96
REMARK   38  A    between atoms: _96  and  _97
REMARK   39  A    between atoms: _96  and  _99
REMARK   40  A    between atoms: _99  and  _100
REMARK   41  A    between atoms: _104  and  _105
REMARK   42  A    between atoms: _111  and  _112
REMARK   43  A    between atoms: _117  and  _119
REMARK   44  A    between atoms: _119  and  _120
REMARK   45  A    between atoms: _119  and  _122
REMARK   46  A    between atoms: _122  and  _123
REMARK   47  A    between atoms: _126  and  _128
REMARK   48  A    between atoms: _128  and  _129
REMARK   49  A    between atoms: _132  and  _133
REMARK   50  A    between atoms: _138  and  _140
REMARK   51  A    between atoms: _140  and  _141
REMARK   52  A    between atoms: _140  and  _143
REMARK   53  A    between atoms: _143  and  _144
REMARK   54  A    between atoms: _144  and  _145
REMARK   55  A    between atoms: _150  and  _152
REMARK   56  A    between atoms: _152  and  _153
REMARK   57  A    between atoms: _152  and  _155
REMARK   58  A    between atoms: _155  and  _156
REMARK   59  A    between atoms: _156  and  _157
REMARK   60  A    between atoms: _163  and  _164
REMARK   61  A    between atoms: _169  and  _171
REMARK   62  A    between atoms: _171  and  _172
REMARK   63  A    between atoms: _171  and  _174
REMARK   64  A    between atoms: _174  and  _175
REMARK   65  A    between atoms: _178  and  _180
REMARK   66  A    between atoms: _180  and  _181
REMARK   67  A    between atoms: _180  and  _183
REMARK   68  A    between atoms: _183  and  _184
REMARK   69  A    between atoms: _189  and  _190
REMARK   70  A    between atoms: _192  and  _194
REMARK   71  A    between atoms: _194  and  _195
REMARK   72  A    between atoms: _194  and  _197
REMARK   73  A    between atoms: _197  and  _198
REMARK   74  A    between atoms: _201  and  _203
REMARK   75  A    between atoms: _203  and  _204
REMARK   76  A    between atoms: _203  and  _206
REMARK   77  A    between atoms: _206  and  _207
REMARK   78  A    between atoms: _212  and  _214
REMARK   79  A    between atoms: _214  and  _215
REMARK   80  A    between atoms: _218  and  _220
REMARK   81  A    between atoms: _220  and  _221
REMARK   82  A    between atoms: _220  and  _223
REMARK   83  A    between atoms: _223  and  _224
REMARK   84  A    between atoms: _227  and  _229
REMARK   85  A    between atoms: _229  and  _230
REMARK   86  A    between atoms: _229  and  _232
REMARK   87  A    between atoms: _232  and  _233
REMARK   88  A    between atoms: _236  and  _238
REMARK   89  A    between atoms: _238  and  _239
REMARK   90  A    between atoms: _238  and  _241
REMARK   91  A    between atoms: _241  and  _242
REMARK   92  A    between atoms: _245  and  _247
REMARK   93  A    between atoms: _247  and  _248
REMARK   94  A    between atoms: _247  and  _250
REMARK   95  A    between atoms: _250  and  _251
REMARK   96  A    between atoms: _251  and  _252
REMARK   97  A    between atoms: _257  and  _259
REMARK   98  A    between atoms: _259  and  _260
REMARK   99  A    between atoms: _259  and  _262
REMARK  100  A    between atoms: _262  and  _263
REMARK  101  A    between atoms: _263  and  _264
REMARK  102  A    between atoms: _264  and  _265
REMARK  103  A    between atoms: _274  and  _276
REMARK  104  A    between atoms: _276  and  _277
REMARK  105  A    between atoms: _276  and  _279
REMARK  106  A    between atoms: _279  and  _280
REMARK  107  A    between atoms: _280  and  _281
REMARK  108  A    between atoms: _284  and  _286
REMARK  109  A    between atoms: _286  and  _287
REMARK  110  A    between atoms: _286  and  _289
REMARK  111  A    between atoms: _289  and  _290
REMARK  112  A    between atoms: _293  and  _295
REMARK  113  A    between atoms: _295  and  _296
REMARK  114  A    between atoms: _295  and  _298
REMARK  115  A    between atoms: _298  and  _299
REMARK  116  A    between atoms: _299  and  _300
REMARK  117  A    between atoms: _300  and  _301
REMARK  118  A    between atoms: _310  and  _312
REMARK  119  A    between atoms: _312  and  _313
REMARK  120  A    between atoms: _312  and  _315
REMARK  121  A    between atoms: _315  and  _316
REMARK  122  A    between atoms: _316  and  _317
REMARK  123  A    between atoms: _317  and  _318
REMARK  124  A    between atoms: _318  and  _319
REMARK  125  A    between atoms: _323  and  _325
REMARK  126  A    between atoms: _325  and  _326
REMARK  127  A    between atoms: _329  and  _331
REMARK  128  A    between atoms: _331  and  _332
REMARK  129  A    between atoms: _331  and  _334
REMARK  130  A    between atoms: _334  and  _335
REMARK  131  A    between atoms: _335  and  _336
REMARK  132  A    between atoms: _339  and  _341
REMARK  133  A    between atoms: _341  and  _342
REMARK  134  A    between atoms: _341  and  _344
REMARK  135  A    between atoms: _344  and  _345
REMARK  136  A    between atoms: _345  and  _346
REMARK  137  A    between atoms: _346  and  _347
REMARK  138  A    between atoms: _356  and  _358
REMARK  139  A    between atoms: _358  and  _359
REMARK  140  A    between atoms: _358  and  _361
REMARK  141  A    between atoms: _361  and  _362
REMARK  142  A    between atoms: _372  and  _374
REMARK  143  A    between atoms: _374  and  _375
REMARK  144  A    between atoms: _378  and  _379
REMARK  145  A    between atoms: _384  and  _386
REMARK  146  A    between atoms: _386  and  _387
REMARK  147  A    between atoms: _386  and  _389
REMARK  148  A    between atoms: _389  and  _390
REMARK  149  A    between atoms: _390  and  _391
REMARK  150  A    between atoms: _391  and  _392
REMARK  151  A    between atoms: _401  and  _403
REMARK  152  A    between atoms: _403  and  _404
REMARK  153  A    between atoms: _403  and  _406
REMARK  154  A    between atoms: _406  and  _407
REMARK  155  A    between atoms: _410  and  _412
REMARK  156  A    between atoms: _412  and  _413
REMARK  157  A    between atoms: _412  and  _415
REMARK  158  A    between atoms: _415  and  _416
REMARK  159  A    between atoms: _419  and  _421
REMARK  160  A    between atoms: _421  and  _422
REMARK  161  A    between atoms: _421  and  _424
REMARK  162  A    between atoms: _424  and  _425
REMARK  163  A    between atoms: _428  and  _430
REMARK  164  A    between atoms: _430  and  _431
REMARK  165  A    between atoms: _430  and  _433
REMARK  166  A    between atoms: _433  and  _434
REMARK  167  A    between atoms: _437  and  _439
REMARK  168  A    between atoms: _439  and  _440
REMARK  169  A    between atoms: _439  and  _442
REMARK  170  A    between atoms: _442  and  _443
REMARK  171  A    between atoms: _446  and  _448
REMARK  172  A    between atoms: _448  and  _449
REMARK  173  A    between atoms: _448  and  _451
REMARK  174  A    between atoms: _451  and  _452
REMARK  175  A    between atoms: _452  and  _453
REMARK  176  A    between atoms: _455  and  _457
REMARK  177  A    between atoms: _457  and  _458
REMARK  178  A    between atoms: _457  and  _460
REMARK  179  A    between atoms: _460  and  _461
REMARK  180  A    between atoms: _464  and  _466
REMARK  181  A    between atoms: _466  and  _467
REMARK  182  A    between atoms: _466  and  _469
REMARK  183  A    between atoms: _469  and  _470
REMARK  184  A    between atoms: _476  and  _478
REMARK  185  A    between atoms: _478  and  _479
REMARK  186  A    between atoms: _478  and  _481
REMARK  187  A    between atoms: _481  and  _482
REMARK  188  A    between atoms: _485  and  _487
REMARK  189  A    between atoms: _487  and  _488
REMARK  190  A    between atoms: _487  and  _490
REMARK  191  A    between atoms: _490  and  _491
REMARK  192  A    between atoms: _494  and  _496
REMARK  193  A    between atoms: _496  and  _497
REMARK  194  A    between atoms: _496  and  _499
REMARK  195  A    between atoms: _499  and  _500
REMARK  196  A    between atoms: _500  and  _501
REMARK  197  A    between atoms: _504  and  _506
REMARK  198  A    between atoms: _506  and  _507
REMARK  199  A    between atoms: _506  and  _509
REMARK  200  A    between atoms: _509  and  _510
REMARK  201  A    between atoms: _510  and  _511
REMARK  202  A    between atoms: _511  and  _512
REMARK  203  A    between atoms: _521  and  _523
REMARK  204  A    between atoms: _523  and  _524
REMARK  205  A    between atoms: _523  and  _526
REMARK  206  A    between atoms: _526  and  _527
REMARK  207  A    between atoms: _530  and  _532
REMARK  208  A    between atoms: _532  and  _533
REMARK  209  A    between atoms: _532  and  _535
REMARK  210  A    between atoms: _535  and  _536
REMARK  211  A    between atoms: _539  and  _541
REMARK  212  A    between atoms: _541  and  _542
REMARK  213  A    between atoms: _541  and  _544
REMARK  214  A    between atoms: _548  and  _549
REMARK  215  A    between atoms: _554  and  _556
REMARK  216  A    between atoms: _556  and  _557
REMARK  217  A    between atoms: _556  and  _559
REMARK  218  A    between atoms: _559  and  _560
REMARK  219  A    between atoms: _565  and  _567
REMARK  220  A    between atoms: _567  and  _568
REMARK  221  A    between atoms: _567  and  _570
REMARK  222  A    between atoms: _570  and  _571
REMARK  223  A    between atoms: _576  and  _577
REMARK  224  A    between atoms: _579  and  _581
REMARK  225  A    between atoms: _581  and  _582
REMARK  226  A    between atoms: _581  and  _584
REMARK  227  A    between atoms: _584  and  _585
REMARK  228  A    between atoms: _588  and  _590
REMARK  229  A    between atoms: _590  and  _591
REMARK  230  A    between atoms: _590  and  _593
REMARK  231  A    between atoms: _593  and  _594
REMARK  232  A    between atoms: _594  and  _595
REMARK  233  A    between atoms: _595  and  _596
REMARK  234  A    between atoms: _605  and  _607
REMARK  235  A    between atoms: _607  and  _608
REMARK  236  A    between atoms: _610  and  _612
REMARK  237  A    between atoms: _612  and  _613
REMARK  238  A    between atoms: _612  and  _615
REMARK  239  A    between atoms: _615  and  _616
REMARK  240  A    between atoms: _622  and  _624
REMARK  241  A    between atoms: _624  and  _625
REMARK  242  A    between atoms: _624  and  _627
REMARK  243  A    between atoms: _627  and  _628
REMARK  244  A    between atoms: _628  and  _629
REMARK  245  A    between atoms: _631  and  _633
REMARK  246  A    between atoms: _633  and  _634
REMARK  247  A    between atoms: _633  and  _636
REMARK  248  A    between atoms: _636  and  _637
REMARK                            x       y       z     vdW  Elec       q    Type
REMARK                         _______ _______ _______ _____ _____    ______ ____
ROOT
ATOM      1  C   ASP A   4       9.208  14.777   9.280  0.00  0.00    +0.241 C 
ATOM      2  N   ILE A   5       8.663  13.642   9.709  0.00  0.00    -0.297 N 
ATOM      3  H   ILE A   5       8.086  13.655  10.574  0.00  0.00    +0.150 HD
ATOM      4  O   ASP A   4       9.976  14.837   8.313  0.00  0.00    -0.273 OA
ENDROOT
BRANCH   2   5
ATOM      5  CA  ILE A   5       8.849  12.391   9.009  0.00  0.00    +0.149 C 
BRANCH   5   6
ATOM      6  C   ILE A   5       7.970  12.417   7.770  0.00  0.00    +0.241 C 
ATOM      7  O   ILE A   5       6.742  12.436   7.864  0.00  0.00    -0.273 OA
ATOM      8  N   MET A   6       8.596  12.485   6.607  0.00  0.00    -0.297 N 
ATOM      9  H   MET A   6       9.636  12.509   6.587  0.00  0.00    +0.150 HD
BRANCH   8  10
ATOM     10  CA  MET A   6       7.853  12.527   5.348  0.00  0.00    +0.149 C 
BRANCH  10  11
ATOM     11  C   MET A   6       7.426  11.167   4.861  0.00  0.00    +0.241 C 
ATOM     12  N   LEU A   7       8.398  10.250   4.806  0.00  0.00    -0.297 N 
ATOM     13  H   LEU A   7       9.358  10.552   5.067  0.00  0.00    +0.150 HD
ATOM     14  O   MET A   6       6.232  10.968   4.535  0.00  0.00    -0.273 OA
BRANCH  12  15
ATOM     15  CA  LEU A   7       8.216   8.863   4.410  0.00  0.00    +0.149 C 
BRANCH  15  16
ATOM     16  C   LEU A   7       8.976   7.962   5.343  0.00  0.00    +0.241 C 
ATOM     17  O   LEU A   7      10.026   8.346   5.860  0.00  0.00    -0.273 OA
ATOM     18  N   PHE A   8       8.442   6.768   5.547  0.00  0.00    -0.298 N 
ATOM     19  H   PHE A   8       7.524   6.544   5.112  0.00  0.00    +0.150 HD
BRANCH  18  20
ATOM     20  CA  PHE A   8       9.098   5.767   6.356  0.00  0.00    +0.141 C 
BRANCH  20  21
ATOM     21  C   PHE A   8       9.068   4.475   5.586  0.00  0.00    +0.227 C 
ATOM     22  O   PHE A   8       8.072   3.738   5.608  0.00  0.00    -0.286 OA
ENDBRANCH  20  21
BRANCH  20  23
ATOM     23  CB  PHE A   8       8.413   5.611   7.718  0.00  0.00    +0.054 C 
BRANCH  23  24
ATOM     24  CG  PHE A   8       9.156   4.718   8.658  0.00  0.00    -0.020 A 
ATOM     25  CD2 PHE A   8      10.050   5.267   9.570  0.00  0.00    -0.004 A 
ATOM     26  CE2 PHE A   8      10.750   4.447  10.452  0.00  0.00    -0.000 A 
ATOM     27  CZ  PHE A   8      10.573   3.081  10.403  0.00  0.00    -0.000 A 
ATOM     28  CE1 PHE A   8       9.677   2.525   9.493  0.00  0.00    -0.000 A 
ATOM     29  CD1 PHE A   8       8.992   3.349   8.612  0.00  0.00    -0.004 A 
ENDBRANCH  23  24
ENDBRANCH  20  23
ENDBRANCH  18  20
ENDBRANCH  15  16
BRANCH  15  30
ATOM     30  CB  LEU A   7       8.750   8.641   3.001  0.00  0.00    +0.029 C 
BRANCH  30  31
ATOM     31  CG  LEU A   7       8.016   9.578   2.052  0.00  0.00    +0.002 C 
ATOM     32  CD2 LEU A   7       6.864   8.797   1.563  0.00  0.00    +0.000 C 
ATOM     33  CD1 LEU A   7       8.857  10.091   0.953  0.00  0.00    +0.000 C 
ENDBRANCH  30  31
ENDBRANCH  15  30
ENDBRANCH  12  15
ENDBRANCH  10  11
BRANCH  10  34
ATOM     34  CB  MET A   6       8.671  13.249   4.267  0.00  0.00    +0.041 C 
BRANCH  34  35
ATOM     35  CG  MET A   6       8.749  14.728   4.493  0.00  0.00    +0.060 C 
BRANCH  35  36
ATOM     36  SD  MET A   6       9.548  15.664   3.169  0.00  0.00    -0.139 S 
ATOM     37  CE  MET A   6      11.224  15.057   3.312  0.00  0.00    +0.069 C 
ENDBRANCH  35  36
ENDBRANCH  34  35
ENDBRANCH  10  34
ENDBRANCH   8  10
ENDBRANCH   5   6
BRANCH   5  38
ATOM     38  CB  ILE A   5       8.478  11.195   9.904  0.00  0.00    +0.027 C 
ATOM     39  CG2 ILE A   5       8.709   9.865   9.182  0.00  0.00    +0.002 C 
BRANCH  38  40
ATOM     40  CG1 ILE A   5       9.310  11.227  11.179  0.00  0.00    +0.002 C 
ATOM     41  CD1 ILE A   5       8.912  10.154  12.144  0.00  0.00    +0.000 C 
ENDBRANCH  38  40
ENDBRANCH   5  38
ENDBRANCH   2   5
BRANCH   1  42
ATOM     42  CA  ASP A   4       8.830  16.032  10.021  0.00  0.00    +0.160 C 
BRANCH  42  45
ATOM     43  C   LEU A   3      10.255  16.902  11.806  0.00  0.00    +0.241 C 
ATOM     44  O   LEU A   3       9.535  16.441  12.696  0.00  0.00    -0.273 OA
ATOM     45  N   ASP A   4      10.000  16.753  10.506  0.00  0.00    -0.297 N 
ATOM     46  H   ASP A   4      10.658  17.165   9.814  0.00  0.00    +0.150 HD
BRANCH  43  47
ATOM     47  CA  LEU A   3      11.490  17.712  12.165  0.00  0.00    +0.149 C 
BRANCH  47  49
ATOM     48  C   ASP A   2      11.356  20.146  12.360  0.00  0.00    +0.241 C 
ATOM     49  N   LEU A   3      11.052  18.942  12.796  0.00  0.00    -0.297 N 
ATOM     50  H   LEU A   3      10.460  18.868  13.648  0.00  0.00    +0.150 HD
ATOM     51  O   ASP A   2      12.171  20.364  11.457  0.00  0.00    -0.273 OA
BRANCH  48  52
ATOM     52  CA  ASP A   2      10.641  21.280  13.070  0.00  0.00    +0.160 C 
BRANCH  52  55
ATOM     53  C   LEU A   1      11.917  22.716  14.594  0.00  0.00    +0.238 C 
ATOM     54  O   LEU A   1      11.465  22.199  15.614  0.00  0.00    -0.274 OA
ATOM     55  N   ASP A   2      11.538  22.387  13.359  0.00  0.00    -0.297 N 
ATOM     56  H   ASP A   2      11.902  22.950  12.564  0.00  0.00    +0.150 HD
BRANCH  53  57
ATOM     57  CA  LEU A   1      13.011  23.743  14.674  0.00  0.00    +0.145 C 
BRANCH  57  58
ATOM     58  N   LEU A   1      12.575  24.955  15.340  0.00  0.00    -0.238 NA
ATOM     59  H   LEU A   1      11.672  24.964  15.857  0.00  0.00    +0.142 HD
ENDBRANCH  57  58
BRANCH  57  60
ATOM     60  CB  LEU A   1      14.213  23.123  15.395  0.00  0.00    +0.026 C 
BRANCH  60  61
ATOM     61  CG  LEU A   1      14.706  21.816  14.769  0.00  0.00    +0.002 C 
ATOM     62  CD2 LEU A   1      15.546  20.995  15.733  0.00  0.00    +0.000 C 
ATOM     63  CD1 LEU A   1      15.500  22.136  13.501  0.00  0.00    +0.000 C 
ENDBRANCH  60  61
ENDBRANCH  57  60
ENDBRANCH  53  57
ENDBRANCH  52  55
BRANCH  52  64
ATOM     64  CB  ASP A   2       9.496  21.743  12.173  0.00  0.00    +0.143 C 
BRANCH  64  65
ATOM     65  CG  ASP A   2       8.799  22.959  12.698  0.00  0.00    +0.367 C 
ATOM     66  OD2 ASP A   2       8.445  22.966  13.893  0.00  0.00    -0.246 OA
ATOM     67  OD1 ASP A   2       8.616  23.913  11.915  0.00  0.00    -0.246 OA
ENDBRANCH  64  65
ENDBRANCH  52  64
ENDBRANCH  48  52
ENDBRANCH  47  49
BRANCH  47  68
ATOM     68  CB  LEU A   3      12.377  16.936  13.119  0.00  0.00    +0.029 C 
BRANCH  68  69
ATOM     69  CG  LEU A   3      13.685  17.648  13.463  0.00  0.00    +0.002 C 
ATOM     70  CD2 LEU A   3      14.455  16.896  14.537  0.00  0.00    +0.000 C 
ATOM     71  CD1 LEU A   3      14.545  17.812  12.218  0.00  0.00    +0.000 C 
ENDBRANCH  68  69
ENDBRANCH  47  68
ENDBRANCH  43  47
ENDBRANCH  42  45
BRANCH  42  72
ATOM     72  CB  ASP A   4       8.059  16.930   9.074  0.00  0.00    +0.143 C 
BRANCH  72  73
ATOM     73  CG  ASP A   4       7.035  17.753   9.780  0.00  0.00    +0.367 C 
ATOM     74  OD2 ASP A   4       6.165  17.132  10.424  0.00  0.00    -0.246 OA
ATOM     75  OD1 ASP A   4       7.113  18.997   9.692  0.00  0.00    -0.246 OA
ENDBRANCH  72  73
ENDBRANCH  42  72
ENDBRANCH   1  42
TORSDOF 33
REMARK  Name = ../refined-set-2016/4f7v/4f7v_pocket.pdb
REMARK  248 active torsions:
REMARK  status: ('A' for Active; 'I' for Inactive)
REMARK    1  A    between atoms: _1  and  _3
REMARK    2  A    between atoms: _3  and  _4
REMARK    3  A    between atoms: _3  and  _6
REMARK    4  A    between atoms: _6  and  _7
REMARK    5  A    between atoms: _12  and  _13
REMARK    6  A    between atoms: _15  and  _17
REMARK    7  A    between atoms: _17  and  _18
REMARK    8  A    between atoms: _17  and  _20
REMARK    9  A    between atoms: _20  and  _21
REMARK   10  A    between atoms: _24  and  _26
REMARK   11  A    between atoms: _26  and  _27
REMARK   12  A    between atoms: _30  and  _32
REMARK   13  A    between atoms: _32  and  _33
REMARK   14  A    between atoms: _32  and  _35
REMARK   15  A    between atoms: _35  and  _36
REMARK   16  A    between atoms: _39  and  _41
REMARK   17  A    between atoms: _41  and  _42
REMARK   18  A    between atoms: _44  and  _46
REMARK   19  A    between atoms: _46  and  _47
REMARK   20  A    between atoms: _46  and  _49
REMARK   21  A    between atoms: _49  and  _50
REMARK   22  A    between atoms: _52  and  _54
REMARK   23  A    between atoms: _54  and  _55
REMARK   24  A    between atoms: _54  and  _57
REMARK   25  A    between atoms: _57  and  _58
REMARK   26  A    between atoms: _63  and  _65
REMARK   27  A    between atoms: _65  and  _66
REMARK   28  A    between atoms: _65  and  _68
REMARK   29  A    between atoms: _68  and  _69
REMARK   30  A    between atoms: _74  and  _75
REMARK   31  A    between atoms: _77  and  _79
REMARK   32  A    between atoms: _79  and  _80
REMARK   33  A    between atoms: _79  and  _82
REMARK   34  A    between atoms: _82  and  _83
REMARK   35  A    between atoms: _83  and  _84
REMARK   36  A    between atoms: _84  and  _85
REMARK   37  A    between atoms: _94  and  _96
REMARK   38  A    between atoms: _96  and  _97
REMARK   39  A    between atoms: _96  and  _99
REMARK   40  A    between atoms: _99  and  _100
REMARK   41  A    between atoms: _104  and  _105
REMARK   42  A    between atoms: _111  and  _112
REMARK   43  A    between atoms: _117  and  _119
REMARK   44  A    between atoms: _119  and  _120
REMARK   45  A    between atoms: _119  and  _122
REMARK   46  A    between atoms: _122  and  _123
REMARK   47  A    between atoms: _126  and  _128
REMARK   48  A    between atoms: _128  and  _129
REMARK   49  A    between atoms: _132  and  _133
REMARK   50  A    between atoms: _138  and  _140
REMARK   51  A    between atoms: _140  and  _141
REMARK   52  A    between atoms: _140  and  _143
REMARK   53  A    between atoms: _143  and  _144
REMARK   54  A    between atoms: _144  and  _145
REMARK   55  A    between atoms: _150  and  _152
REMARK   56  A    between atoms: _152  and  _153
REMARK   57  A    between atoms: _152  and  _155
REMARK   58  A    between atoms: _155  and  _156
REMARK   59  A    between atoms: _156  and  _157
REMARK   60  A    between atoms: _163  and  _164
REMARK   61  A    between atoms: _169  and  _171
REMARK   62  A    between atoms: _171  and  _172
REMARK   63  A    between atoms: _171  and  _174
REMARK   64  A    between atoms: _174  and  _175
REMARK   65  A    between atoms: _178  and  _180
REMARK   66  A    between atoms: _180  and  _181
REMARK   67  A    between atoms: _180  and  _183
REMARK   68  A    between atoms: _183  and  _184
REMARK   69  A    between atoms: _189  and  _190
REMARK   70  A    between atoms: _192  and  _194
REMARK   71  A    between atoms: _194  and  _195
REMARK   72  A    between atoms: _194  and  _197
REMARK   73  A    between atoms: _197  and  _198
REMARK   74  A    between atoms: _201  and  _203
REMARK   75  A    between atoms: _203  and  _204
REMARK   76  A    between atoms: _203  and  _206
REMARK   77  A    between atoms: _206  and  _207
REMARK   78  A    between atoms: _212  and  _214
REMARK   79  A    between atoms: _214  and  _215
REMARK   80  A    between atoms: _218  and  _220
REMARK   81  A    between atoms: _220  and  _221
REMARK   82  A    between atoms: _220  and  _223
REMARK   83  A    between atoms: _223  and  _224
REMARK   84  A    between atoms: _227  and  _229
REMARK   85  A    between atoms: _229  and  _230
REMARK   86  A    between atoms: _229  and  _232
REMARK   87  A    between atoms: _232  and  _233
REMARK   88  A    between atoms: _236  and  _238
REMARK   89  A    between atoms: _238  and  _239
REMARK   90  A    between atoms: _238  and  _241
REMARK   91  A    between atoms: _241  and  _242
REMARK   92  A    between atoms: _245  and  _247
REMARK   93  A    between atoms: _247  and  _248
REMARK   94  A    between atoms: _247  and  _250
REMARK   95  A    between atoms: _250  and  _251
REMARK   96  A    between atoms: _251  and  _252
REMARK   97  A    between atoms: _257  and  _259
REMARK   98  A    between atoms: _259  and  _260
REMARK   99  A    between atoms: _259  and  _262
REMARK  100  A    between atoms: _262  and  _263
REMARK  101  A    between atoms: _263  and  _264
REMARK  102  A    between atoms: _264  and  _265
REMARK  103  A    between atoms: _274  and  _276
REMARK  104  A    between atoms: _276  and  _277
REMARK  105  A    between atoms: _276  and  _279
REMARK  106  A    between atoms: _279  and  _280
REMARK  107  A    between atoms: _280  and  _281
REMARK  108  A    between atoms: _284  and  _286
REMARK  109  A    between atoms: _286  and  _287
REMARK  110  A    between atoms: _286  and  _289
REMARK  111  A    between atoms: _289  and  _290
REMARK  112  A    between atoms: _293  and  _295
REMARK  113  A    between atoms: _295  and  _296
REMARK  114  A    between atoms: _295  and  _298
REMARK  115  A    between atoms: _298  and  _299
REMARK  116  A    between atoms: _299  and  _300
REMARK  117  A    between atoms: _300  and  _301
REMARK  118  A    between atoms: _310  and  _312
REMARK  119  A    between atoms: _312  and  _313
REMARK  120  A    between atoms: _312  and  _315
REMARK  121  A    between atoms: _315  and  _316
REMARK  122  A    between atoms: _316  and  _317
REMARK  123  A    between atoms: _317  and  _318
REMARK  124  A    between atoms: _318  and  _319
REMARK  125  A    between atoms: _323  and  _325
REMARK  126  A    between atoms: _325  and  _326
REMARK  127  A    between atoms: _329  and  _331
REMARK  128  A    between atoms: _331  and  _332
REMARK  129  A    between atoms: _331  and  _334
REMARK  130  A    between atoms: _334  and  _335
REMARK  131  A    between atoms: _335  and  _336
REMARK  132  A    between atoms: _339  and  _341
REMARK  133  A    between atoms: _341  and  _342
REMARK  134  A    between atoms: _341  and  _344
REMARK  135  A    between atoms: _344  and  _345
REMARK  136  A    between atoms: _345  and  _346
REMARK  137  A    between atoms: _346  and  _347
REMARK  138  A    between atoms: _356  and  _358
REMARK  139  A    between atoms: _358  and  _359
REMARK  140  A    between atoms: _358  and  _361
REMARK  141  A    between atoms: _361  and  _362
REMARK  142  A    between atoms: _372  and  _374
REMARK  143  A    between atoms: _374  and  _375
REMARK  144  A    between atoms: _378  and  _379
REMARK  145  A    between atoms: _384  and  _386
REMARK  146  A    between atoms: _386  and  _387
REMARK  147  A    between atoms: _386  and  _389
REMARK  148  A    between atoms: _389  and  _390
REMARK  149  A    between atoms: _390  and  _391
REMARK  150  A    between atoms: _391  and  _392
REMARK  151  A    between atoms: _401  and  _403
REMARK  152  A    between atoms: _403  and  _404
REMARK  153  A    between atoms: _403  and  _406
REMARK  154  A    between atoms: _406  and  _407
REMARK  155  A    between atoms: _410  and  _412
REMARK  156  A    between atoms: _412  and  _413
REMARK  157  A    between atoms: _412  and  _415
REMARK  158  A    between atoms: _415  and  _416
REMARK  159  A    between atoms: _419  and  _421
REMARK  160  A    between atoms: _421  and  _422
REMARK  161  A    between atoms: _421  and  _424
REMARK  162  A    between atoms: _424  and  _425
REMARK  163  A    between atoms: _428  and  _430
REMARK  164  A    between atoms: _430  and  _431
REMARK  165  A    between atoms: _430  and  _433
REMARK  166  A    between atoms: _433  and  _434
REMARK  167  A    between atoms: _437  and  _439
REMARK  168  A    between atoms: _439  and  _440
REMARK  169  A    between atoms: _439  and  _442
REMARK  170  A    between atoms: _442  and  _443
REMARK  171  A    between atoms: _446  and  _448
REMARK  172  A    between atoms: _448  and  _449
REMARK  173  A    between atoms: _448  and  _451
REMARK  174  A    between atoms: _451  and  _452
REMARK  175  A    between atoms: _452  and  _453
REMARK  176  A    between atoms: _455  and  _457
REMARK  177  A    between atoms: _457  and  _458
REMARK  178  A    between atoms: _457  and  _460
REMARK  179  A    between atoms: _460  and  _461
REMARK  180  A    between atoms: _464  and  _466
REMARK  181  A    between atoms: _466  and  _467
REMARK  182  A    between atoms: _466  and  _469
REMARK  183  A    between atoms: _469  and  _470
REMARK  184  A    between atoms: _476  and  _478
REMARK  185  A    between atoms: _478  and  _479
REMARK  186  A    between atoms: _478  and  _481
REMARK  187  A    between atoms: _481  and  _482
REMARK  188  A    between atoms: _485  and  _487
REMARK  189  A    between atoms: _487  and  _488
REMARK  190  A    between atoms: _487  and  _490
REMARK  191  A    between atoms: _490  and  _491
REMARK  192  A    between atoms: _494  and  _496
REMARK  193  A    between atoms: _496  and  _497
REMARK  194  A    between atoms: _496  and  _499
REMARK  195  A    between atoms: _499  and  _500
REMARK  196  A    between atoms: _500  and  _501
REMARK  197  A    between atoms: _504  and  _506
REMARK  198  A    between atoms: _506  and  _507
REMARK  199  A    between atoms: _506  and  _509
REMARK  200  A    between atoms: _509  and  _510
REMARK  201  A    between atoms: _510  and  _511
REMARK  202  A    between atoms: _511  and  _512
REMARK  203  A    between atoms: _521  and  _523
REMARK  204  A    between atoms: _523  and  _524
REMARK  205  A    between atoms: _523  and  _526
REMARK  206  A    between atoms: _526  and  _527
REMARK  207  A    between atoms: _530  and  _532
REMARK  208  A    between atoms: _532  and  _533
REMARK  209  A    between atoms: _532  and  _535
REMARK  210  A    between atoms: _535  and  _536
REMARK  211  A    between atoms: _539  and  _541
REMARK  212  A    between atoms: _541  and  _542
REMARK  213  A    between atoms: _541  and  _544
REMARK  214  A    between atoms: _548  and  _549
REMARK  215  A    between atoms: _554  and  _556
REMARK  216  A    between atoms: _556  and  _557
REMARK  217  A    between atoms: _556  and  _559
REMARK  218  A    between atoms: _559  and  _560
REMARK  219  A    between atoms: _565  and  _567
REMARK  220  A    between atoms: _567  and  _568
REMARK  221  A    between atoms: _567  and  _570
REMARK  222  A    between atoms: _570  and  _571
REMARK  223  A    between atoms: _576  and  _577
REMARK  224  A    between atoms: _579  and  _581
REMARK  225  A    between atoms: _581  and  _582
REMARK  226  A    between atoms: _581  and  _584
REMARK  227  A    between atoms: _584  and  _585
REMARK  228  A    between atoms: _588  and  _590
REMARK  229  A    between atoms: _590  and  _591
REMARK  230  A    between atoms: _590  and  _593
REMARK  231  A    between atoms: _593  and  _594
REMARK  232  A    between atoms: _594  and  _595
REMARK  233  A    between atoms: _595  and  _596
REMARK  234  A    between atoms: _605  and  _607
REMARK  235  A    between atoms: _607  and  _608
REMARK  236  A    between atoms: _610  and  _612
REMARK  237  A    between atoms: _612  and  _613
REMARK  238  A    between atoms: _612  and  _615
REMARK  239  A    between atoms: _615  and  _616
REMARK  240  A    between atoms: _622  and  _624
REMARK  241  A    between atoms: _624  and  _625
REMARK  242  A    between atoms: _624  and  _627
REMARK  243  A    between atoms: _627  and  _628
REMARK  244  A    between atoms: _628  and  _629
REMARK  245  A    between atoms: _631  and  _633
REMARK  246  A    between atoms: _633  and  _634
REMARK  247  A    between atoms: _633  and  _636
REMARK  248  A    between atoms: _636  and  _637
REMARK                            x       y       z     vdW  Elec       q    Type
REMARK                         _______ _______ _______ _____ _____    ______ ____
ROOT
ATOM      1  CA  ILE A   1       0.732   4.960   8.771  0.00  0.00    +0.133 C 
ENDROOT
BRANCH   1   2
ATOM      2  N   ILE A   1       1.029   4.916   7.351  0.00  0.00    -0.239 NA
ATOM      3  H   ILE A   1       1.244   5.795   6.838  0.00  0.00    +0.142 HD
ENDBRANCH   1   2
BRANCH   1   4
ATOM      4  CB  ILE A   1       2.000   5.256   9.600  0.00  0.00    +0.023 C 
ATOM      5  CG2 ILE A   1       1.647   5.317  11.070  0.00  0.00    +0.002 C 
BRANCH   4   6
ATOM      6  CG1 ILE A   1       3.087   4.201   9.369  0.00  0.00    +0.002 C 
ATOM      7  CD1 ILE A   1       4.409   4.579   9.997  0.00  0.00    +0.000 C 
ENDBRANCH   4   6
ENDBRANCH   1   4
BRANCH   1   8
ATOM      8  C   ILE A   1      -0.316   6.029   9.042  0.00  0.00    +0.224 C 
ATOM      9  O   ILE A   1      -0.190   7.200   8.661  0.00  0.00    -0.287 OA
ENDBRANCH   1   8
TORSDOF 4
REMARK  Name = ../refined-set-2016/4f7v/4f7v_pocket.pdb
REMARK  248 active torsions:
REMARK  status: ('A' for Active; 'I' for Inactive)
REMARK    1  A    between atoms: _1  and  _3
REMARK    2  A    between atoms: _3  and  _4
REMARK    3  A    between atoms: _3  and  _6
REMARK    4  A    between atoms: _6  and  _7
REMARK    5  A    between atoms: _12  and  _13
REMARK    6  A    between atoms: _15  and  _17
REMARK    7  A    between atoms: _17  and  _18
REMARK    8  A    between atoms: _17  and  _20
REMARK    9  A    between atoms: _20  and  _21
REMARK   10  A    between atoms: _24  and  _26
REMARK   11  A    between atoms: _26  and  _27
REMARK   12  A    between atoms: _30  and  _32
REMARK   13  A    between atoms: _32  and  _33
REMARK   14  A    between atoms: _32  and  _35
REMARK   15  A    between atoms: _35  and  _36
REMARK   16  A    between atoms: _39  and  _41
REMARK   17  A    between atoms: _41  and  _42
REMARK   18  A    between atoms: _44  and  _46
REMARK   19  A    between atoms: _46  and  _47
REMARK   20  A    between atoms: _46  and  _49
REMARK   21  A    between atoms: _49  and  _50
REMARK   22  A    between atoms: _52  and  _54
REMARK   23  A    between atoms: _54  and  _55
REMARK   24  A    between atoms: _54  and  _57
REMARK   25  A    between atoms: _57  and  _58
REMARK   26  A    between atoms: _63  and  _65
REMARK   27  A    between atoms: _65  and  _66
REMARK   28  A    between atoms: _65  and  _68
REMARK   29  A    between atoms: _68  and  _69
REMARK   30  A    between atoms: _74  and  _75
REMARK   31  A    between atoms: _77  and  _79
REMARK   32  A    between atoms: _79  and  _80
REMARK   33  A    between atoms: _79  and  _82
REMARK   34  A    between atoms: _82  and  _83
REMARK   35  A    between atoms: _83  and  _84
REMARK   36  A    between atoms: _84  and  _85
REMARK   37  A    between atoms: _94  and  _96
REMARK   38  A    between atoms: _96  and  _97
REMARK   39  A    between atoms: _96  and  _99
REMARK   40  A    between atoms: _99  and  _100
REMARK   41  A    between atoms: _104  and  _105
REMARK   42  A    between atoms: _111  and  _112
REMARK   43  A    between atoms: _117  and  _119
REMARK   44  A    between atoms: _119  and  _120
REMARK   45  A    between atoms: _119  and  _122
REMARK   46  A    between atoms: _122  and  _123
REMARK   47  A    between atoms: _126  and  _128
REMARK   48  A    between atoms: _128  and  _129
REMARK   49  A    between atoms: _132  and  _133
REMARK   50  A    between atoms: _138  and  _140
REMARK   51  A    between atoms: _140  and  _141
REMARK   52  A    between atoms: _140  and  _143
REMARK   53  A    between atoms: _143  and  _144
REMARK   54  A    between atoms: _144  and  _145
REMARK   55  A    between atoms: _150  and  _152
REMARK   56  A    between atoms: _152  and  _153
REMARK   57  A    between atoms: _152  and  _155
REMARK   58  A    between atoms: _155  and  _156
REMARK   59  A    between atoms: _156  and  _157
REMARK   60  A    between atoms: _163  and  _164
REMARK   61  A    between atoms: _169  and  _171
REMARK   62  A    between atoms: _171  and  _172
REMARK   63  A    between atoms: _171  and  _174
REMARK   64  A    between atoms: _174  and  _175
REMARK   65  A    between atoms: _178  and  _180
REMARK   66  A    between atoms: _180  and  _181
REMARK   67  A    between atoms: _180  and  _183
REMARK   68  A    between atoms: _183  and  _184
REMARK   69  A    between atoms: _189  and  _190
REMARK   70  A    between atoms: _192  and  _194
REMARK   71  A    between atoms: _194  and  _195
REMARK   72  A    between atoms: _194  and  _197
REMARK   73  A    between atoms: _197  and  _198
REMARK   74  A    between atoms: _201  and  _203
REMARK   75  A    between atoms: _203  and  _204
REMARK   76  A    between atoms: _203  and  _206
REMARK   77  A    between atoms: _206  and  _207
REMARK   78  A    between atoms: _212  and  _214
REMARK   79  A    between atoms: _214  and  _215
REMARK   80  A    between atoms: _218  and  _220
REMARK   81  A    between atoms: _220  and  _221
REMARK   82  A    between atoms: _220  and  _223
REMARK   83  A    between atoms: _223  and  _224
REMARK   84  A    between atoms: _227  and  _229
REMARK   85  A    between atoms: _229  and  _230
REMARK   86  A    between atoms: _229  and  _232
REMARK   87  A    between atoms: _232  and  _233
REMARK   88  A    between atoms: _236  and  _238
REMARK   89  A    between atoms: _238  and  _239
REMARK   90  A    between atoms: _238  and  _241
REMARK   91  A    between atoms: _241  and  _242
REMARK   92  A    between atoms: _245  and  _247
REMARK   93  A    between atoms: _247  and  _248
REMARK   94  A    between atoms: _247  and  _250
REMARK   95  A    between atoms: _250  and  _251
REMARK   96  A    between atoms: _251  and  _252
REMARK   97  A    between atoms: _257  and  _259
REMARK   98  A    between atoms: _259  and  _260
REMARK   99  A    between atoms: _259  and  _262
REMARK  100  A    between atoms: _262  and  _263
REMARK  101  A    between atoms: _263  and  _264
REMARK  102  A    between atoms: _264  and  _265
REMARK  103  A    between atoms: _274  and  _276
REMARK  104  A    between atoms: _276  and  _277
REMARK  105  A    between atoms: _276  and  _279
REMARK  106  A    between atoms: _279  and  _280
REMARK  107  A    between atoms: _280  and  _281
REMARK  108  A    between atoms: _284  and  _286
REMARK  109  A    between atoms: _286  and  _287
REMARK  110  A    between atoms: _286  and  _289
REMARK  111  A    between atoms: _289  and  _290
REMARK  112  A    between atoms: _293  and  _295
REMARK  113  A    between atoms: _295  and  _296
REMARK  114  A    between atoms: _295  and  _298
REMARK  115  A    between atoms: _298  and  _299
REMARK  116  A    between atoms: _299  and  _300
REMARK  117  A    between atoms: _300  and  _301
REMARK  118  A    between atoms: _310  and  _312
REMARK  119  A    between atoms: _312  and  _313
REMARK  120  A    between atoms: _312  and  _315
REMARK  121  A    between atoms: _315  and  _316
REMARK  122  A    between atoms: _316  and  _317
REMARK  123  A    between atoms: _317  and  _318
REMARK  124  A    between atoms: _318  and  _319
REMARK  125  A    between atoms: _323  and  _325
REMARK  126  A    between atoms: _325  and  _326
REMARK  127  A    between atoms: _329  and  _331
REMARK  128  A    between atoms: _331  and  _332
REMARK  129  A    between atoms: _331  and  _334
REMARK  130  A    between atoms: _334  and  _335
REMARK  131  A    between atoms: _335  and  _336
REMARK  132  A    between atoms: _339  and  _341
REMARK  133  A    between atoms: _341  and  _342
REMARK  134  A    between atoms: _341  and  _344
REMARK  135  A    between atoms: _344  and  _345
REMARK  136  A    between atoms: _345  and  _346
REMARK  137  A    between atoms: _346  and  _347
REMARK  138  A    between atoms: _356  and  _358
REMARK  139  A    between atoms: _358  and  _359
REMARK  140  A    between atoms: _358  and  _361
REMARK  141  A    between atoms: _361  and  _362
REMARK  142  A    between atoms: _372  and  _374
REMARK  143  A    between atoms: _374  and  _375
REMARK  144  A    between atoms: _378  and  _379
REMARK  145  A    between atoms: _384  and  _386
REMARK  146  A    between atoms: _386  and  _387
REMARK  147  A    between atoms: _386  and  _389
REMARK  148  A    between atoms: _389  and  _390
REMARK  149  A    between atoms: _390  and  _391
REMARK  150  A    between atoms: _391  and  _392
REMARK  151  A    between atoms: _401  and  _403
REMARK  152  A    between atoms: _403  and  _404
REMARK  153  A    between atoms: _403  and  _406
REMARK  154  A    between atoms: _406  and  _407
REMARK  155  A    between atoms: _410  and  _412
REMARK  156  A    between atoms: _412  and  _413
REMARK  157  A    between atoms: _412  and  _415
REMARK  158  A    between atoms: _415  and  _416
REMARK  159  A    between atoms: _419  and  _421
REMARK  160  A    between atoms: _421  and  _422
REMARK  161  A    between atoms: _421  and  _424
REMARK  162  A    between atoms: _424  and  _425
REMARK  163  A    between atoms: _428  and  _430
REMARK  164  A    between atoms: _430  and  _431
REMARK  165  A    between atoms: _430  and  _433
REMARK  166  A    between atoms: _433  and  _434
REMARK  167  A    between atoms: _437  and  _439
REMARK  168  A    between atoms: _439  and  _440
REMARK  169  A    between atoms: _439  and  _442
REMARK  170  A    between atoms: _442  and  _443
REMARK  171  A    between atoms: _446  and  _448
REMARK  172  A    between atoms: _448  and  _449
REMARK  173  A    between atoms: _448  and  _451
REMARK  174  A    between atoms: _451  and  _452
REMARK  175  A    between atoms: _452  and  _453
REMARK  176  A    between atoms: _455  and  _457
REMARK  177  A    between atoms: _457  and  _458
REMARK  178  A    between atoms: _457  and  _460
REMARK  179  A    between atoms: _460  and  _461
REMARK  180  A    between atoms: _464  and  _466
REMARK  181  A    between atoms: _466  and  _467
REMARK  182  A    between atoms: _466  and  _469
REMARK  183  A    between atoms: _469  and  _470
REMARK  184  A    between atoms: _476  and  _478
REMARK  185  A    between atoms: _478  and  _479
REMARK  186  A    between atoms: _478  and  _481
REMARK  187  A    between atoms: _481  and  _482
REMARK  188  A    between atoms: _485  and  _487
REMARK  189  A    between atoms: _487  and  _488
REMARK  190  A    between atoms: _487  and  _490
REMARK  191  A    between atoms: _490  and  _491
REMARK  192  A    between atoms: _494  and  _496
REMARK  193  A    between atoms: _496  and  _497
REMARK  194  A    between atoms: _496  and  _499
REMARK  195  A    between atoms: _499  and  _500
REMARK  196  A    between atoms: _500  and  _501
REMARK  197  A    between atoms: _504  and  _506
REMARK  198  A    between atoms: _506  and  _507
REMARK  199  A    between atoms: _506  and  _509
REMARK  200  A    between atoms: _509  and  _510
REMARK  201  A    between atoms: _510  and  _511
REMARK  202  A    between atoms: _511  and  _512
REMARK  203  A    between atoms: _521  and  _523
REMARK  204  A    between atoms: _523  and  _524
REMARK  205  A    between atoms: _523  and  _526
REMARK  206  A    between atoms: _526  and  _527
REMARK  207  A    between atoms: _530  and  _532
REMARK  208  A    between atoms: _532  and  _533
REMARK  209  A    between atoms: _532  and  _535
REMARK  210  A    between atoms: _535  and  _536
REMARK  211  A    between atoms: _539  and  _541
REMARK  212  A    between atoms: _541  and  _542
REMARK  213  A    between atoms: _541  and  _544
REMARK  214  A    between atoms: _548  and  _549
REMARK  215  A    between atoms: _554  and  _556
REMARK  216  A    between atoms: _556  and  _557
REMARK  217  A    between atoms: _556  and  _559
REMARK  218  A    between atoms: _559  and  _560
REMARK  219  A    between atoms: _565  and  _567
REMARK  220  A    between atoms: _567  and  _568
REMARK  221  A    between atoms: _567  and  _570
REMARK  222  A    between atoms: _570  and  _571
REMARK  223  A    between atoms: _576  and  _577
REMARK  224  A    between atoms: _579  and  _581
REMARK  225  A    between atoms: _581  and  _582
REMARK  226  A    between atoms: _581  and  _584
REMARK  227  A    between atoms: _584  and  _585
REMARK  228  A    between atoms: _588  and  _590
REMARK  229  A    between atoms: _590  and  _591
REMARK  230  A    between atoms: _590  and  _593
REMARK  231  A    between atoms: _593  and  _594
REMARK  232  A    between atoms: _594  and  _595
REMARK  233  A    between atoms: _595  and  _596
REMARK  234  A    between atoms: _605  and  _607
REMARK  235  A    between atoms: _607  and  _608
REMARK  236  A    between atoms: _610  and  _612
REMARK  237  A    between atoms: _612  and  _613
REMARK  238  A    between atoms: _612  and  _615
REMARK  239  A    between atoms: _615  and  _616
REMARK  240  A    between atoms: _622  and  _624
REMARK  241  A    between atoms: _624  and  _625
REMARK  242  A    between atoms: _624  and  _627
REMARK  243  A    between atoms: _627  and  _628
REMARK  244  A    between atoms: _628  and  _629
REMARK  245  A    between atoms: _631  and  _633
REMARK  246  A    between atoms: _633  and  _634
REMARK  247  A    between atoms: _633  and  _636
REMARK  248  A    between atoms: _636  and  _637
REMARK                            x       y       z     vdW  Elec       q    Type
REMARK                         _______ _______ _______ _____ _____    ______ ____
ROOT
ATOM      1  CA  THR A   5       0.451  10.304   9.415  0.00  0.00    +0.176 C 
ENDROOT
BRANCH   1   4
ATOM      2  C   LEU A   4       0.754   9.583  11.701  0.00  0.00    +0.241 C 
ATOM      3  O   LEU A   4      -0.171   8.785  11.614  0.00  0.00    -0.273 OA
ATOM      4  N   THR A   5       1.059  10.428  10.730  0.00  0.00    -0.295 N 
ATOM      5  H   THR A   5       1.743  11.191  10.909  0.00  0.00    +0.150 HD
BRANCH   2   6
ATOM      6  CA  LEU A   4       1.657   9.611  12.938  0.00  0.00    +0.149 C 
BRANCH   6   9
ATOM      7  C   ARG A   3       1.207  10.445  15.192  0.00  0.00    +0.241 C 
ATOM      8  O   ARG A   3       1.892  11.460  15.016  0.00  0.00    -0.273 OA
ATOM      9  N   LEU A   4       0.935   9.569  14.222  0.00  0.00    -0.297 N 
ATOM     10  H   LEU A   4       0.203   8.846  14.375  0.00  0.00    +0.150 HD
BRANCH   7  11
ATOM     11  CA  ARG A   3       0.606  10.156  16.569  0.00  0.00    +0.149 C 
BRANCH  11  13
ATOM     12  C   GLU A   2      -1.820  10.158  16.501  0.00  0.00    +0.241 C 
ATOM     13  N   ARG A   3      -0.685   9.469  16.500  0.00  0.00    -0.297 N 
ATOM     14  H   ARG A   3      -0.713   8.431  16.450  0.00  0.00    +0.150 HD
ATOM     15  O   GLU A   2      -1.859  11.380  16.465  0.00  0.00    -0.273 OA
BRANCH  12  16
ATOM     16  CA  GLU A   2      -3.106   9.346  16.530  0.00  0.00    +0.149 C 
BRANCH  16  18
ATOM     17  C   THR A   1      -2.662   8.119  14.464  0.00  0.00    +0.241 C 
ATOM     18  N   GLU A   2      -2.936   8.107  15.776  0.00  0.00    -0.297 N 
ATOM     19  H   GLU A   2      -3.030   7.195  16.268  0.00  0.00    +0.150 HD
ATOM     20  O   THR A   1      -2.579   9.147  13.798  0.00  0.00    -0.274 OA
BRANCH  17  21
ATOM     21  CA  THR A   1      -2.489   6.768  13.828  0.00  0.00    +0.172 C 
BRANCH  21  22
ATOM     22  N   THR A   1      -2.177   6.966  12.426  0.00  0.00    -0.236 NA
ATOM     23  H   THR A   1      -1.412   7.616  12.156  0.00  0.00    +0.142 HD
ENDBRANCH  21  22
BRANCH  21  24
ATOM     24  CB  THR A   1      -1.387   6.021  14.605  0.00  0.00    +0.135 C 
ATOM     25  CG2 THR A   1      -1.008   4.689  13.957  0.00  0.00    +0.034 C 
BRANCH  24  26
ATOM     26  OG1 THR A   1      -0.246   6.859  14.726  0.00  0.00    -0.383 OA
ATOM     27  HG1 THR A   1       0.462   6.380  15.225  0.00  0.00    +0.210 HD
ENDBRANCH  24  26
ENDBRANCH  21  24
ENDBRANCH  17  21
ENDBRANCH  16  18
BRANCH  16  28
ATOM     28  CB  GLU A   2      -3.510   9.051  17.982  0.00  0.00    +0.041 C 
BRANCH  28  29
ATOM     29  CG  GLU A   2      -4.874   8.326  18.146  0.00  0.00    +0.116 C 
BRANCH  29  30
ATOM     30  CD  GLU A   2      -4.727   6.820  18.317  0.00  0.00    +0.365 C 
ATOM     31  OE2 GLU A   2      -5.633   6.173  18.898  0.00  0.00    -0.246 OA
ATOM     32  OE1 GLU A   2      -3.695   6.284  17.870  0.00  0.00    -0.246 OA
ENDBRANCH  29  30
ENDBRANCH  28  29
ENDBRANCH  16  28
ENDBRANCH  12  16
ENDBRANCH  11  13
BRANCH  11  33
ATOM     33  CB  ARG A   3       1.611   9.335  17.381  0.00  0.00    +0.033 C 
BRANCH  33  34
ATOM     34  CG  ARG A   3       1.332   9.305  18.898  0.00  0.00    +0.045 C 
BRANCH  34  35
ATOM     35  CD  ARG A   3       2.483   8.654  19.625  0.00  0.00    +0.174 C 
BRANCH  35  36
ATOM     36  NE  ARG A   3       3.597   9.575  19.679  0.00  0.00    -0.265 N 
ATOM     37  CZ  ARG A   3       4.843   9.225  19.975  0.00  0.00    +0.342 C 
ATOM     38  NH2 ARG A   3       5.146   7.958  20.228  0.00  0.00    -0.292 N 
ATOM     39 HH21 ARG A   3       6.125   7.694  20.459  0.00  0.00    +0.255 HD
ATOM     40 HH22 ARG A   3       4.405   7.229  20.195  0.00  0.00    +0.255 HD
ATOM     41  NH1 ARG A   3       5.787  10.154  20.006  0.00  0.00    -0.292 N 
ATOM     42 HH11 ARG A   3       6.767   9.892  20.237  0.00  0.00    +0.255 HD
ATOM     43 HH12 ARG A   3       5.548  11.145  19.800  0.00  0.00    +0.255 HD
ATOM     44  HE  ARG A   3       3.410  10.577  19.472  0.00  0.00    +0.259 HD
ENDBRANCH  35  36
ENDBRANCH  34  35
ENDBRANCH  33  34
ENDBRANCH  11  33
ENDBRANCH   7  11
ENDBRANCH   6   9
BRANCH   6  45
ATOM     45  CB  LEU A   4       2.577   8.407  12.829  0.00  0.00    +0.029 C 
BRANCH  45  46
ATOM     46  CG  LEU A   4       3.962   8.507  13.464  0.00  0.00    +0.002 C 
ATOM     47  CD2 LEU A   4       4.678   7.159  13.383  0.00  0.00    +0.000 C 
ATOM     48  CD1 LEU A   4       4.750   9.581  12.759  0.00  0.00    +0.000 C 
ENDBRANCH  45  46
ENDBRANCH   6  45
ENDBRANCH   2   6
ENDBRANCH   1   4
BRANCH   1  49
ATOM     49  C   THR A   5       1.607  10.218   8.429  0.00  0.00    +0.243 C 
ATOM     50  O   THR A   5       2.338  11.178   8.275  0.00  0.00    -0.273 OA
ATOM     51  N   VAL A   6       1.759   9.054   7.809  0.00  0.00    -0.297 N 
ATOM     52  H   VAL A   6       1.097   8.279   8.015  0.00  0.00    +0.150 HD
BRANCH  51  53
ATOM     53  CA  VAL A   6       2.833   8.837   6.845  0.00  0.00    +0.149 C 
BRANCH  53  54
ATOM     54  C   VAL A   6       2.201   8.188   5.623  0.00  0.00    +0.244 C 
ATOM     55  O   VAL A   6       1.462   7.205   5.744  0.00  0.00    -0.273 OA
ATOM     56  N   PRO A   7       2.476   8.730   4.438  0.00  0.00    -0.272 N 
ATOM     57  CA  PRO A   7       3.244   9.934   4.146  0.00  0.00    +0.152 C 
ATOM     58  CB  PRO A   7       3.119  10.055   2.604  0.00  0.00    +0.031 C 
ATOM     59  CG  PRO A   7       2.919   8.682   2.143  0.00  0.00    +0.024 C 
ATOM     60  CD  PRO A   7       2.130   7.983   3.216  0.00  0.00    +0.094 C 
BRANCH  57  61
ATOM     61  C   PRO A   7       2.686  11.165   4.829  0.00  0.00    +0.241 C 
ATOM     62  O   PRO A   7       1.487  11.239   5.148  0.00  0.00    -0.273 OA
ATOM     63  N   HIS A   8       3.555  12.139   5.060  0.00  0.00    -0.297 N 
ATOM     64  H   HIS A   8       4.532  12.010   4.728  0.00  0.00    +0.150 HD
BRANCH  63  65
ATOM     65  CA  HIS A   8       3.227  13.372   5.746  0.00  0.00    +0.155 C 
BRANCH  65  66
ATOM     66  C   HIS A   8       1.966  14.032   5.182  0.00  0.00    +0.241 C 
ATOM     67  N   TYR A   9       1.169  14.577   6.099  0.00  0.00    -0.297 N 
ATOM     68  H   TYR A   9       1.546  14.715   7.058  0.00  0.00    +0.150 HD
ATOM     69  O   HIS A   8       1.767  14.085   3.969  0.00  0.00    -0.273 OA
BRANCH  67  70
ATOM     70  CA  TYR A   9      -0.214  14.994   5.830  0.00  0.00    +0.153 C 
BRANCH  70  71
ATOM     71  C   TYR A   9      -0.376  16.112   4.791  0.00  0.00    +0.241 C 
ATOM     72  N   ASP A  10       0.624  16.970   4.622  0.00  0.00    -0.298 N 
ATOM     73  H   ASP A  10       1.514  16.838   5.144  0.00  0.00    +0.150 HD
ATOM     74  O   TYR A   9      -1.414  16.201   4.137  0.00  0.00    -0.273 OA
BRANCH  72  75
ATOM     75  CA  ASP A  10       0.479  18.092   3.710  0.00  0.00    +0.148 C 
BRANCH  75  76
ATOM     76  C   ASP A  10       1.677  18.277   2.758  0.00  0.00    +0.227 C 
ATOM     77  O   ASP A  10       1.769  19.305   2.107  0.00  0.00    -0.286 OA
ENDBRANCH  75  76
BRANCH  75  78
ATOM     78  CB  ASP A  10       0.232  19.358   4.519  0.00  0.00    +0.142 C 
BRANCH  78  79
ATOM     79  CG  ASP A  10      -0.431  20.457   3.724  0.00  0.00    +0.367 C 
ATOM     80  OD2 ASP A  10       0.032  21.620   3.856  0.00  0.00    -0.246 OA
ATOM     81  OD1 ASP A  10      -1.390  20.149   2.966  0.00  0.00    -0.246 OA
ENDBRANCH  78  79
ENDBRANCH  75  78
ENDBRANCH  72  75
ENDBRANCH  70  71
BRANCH  70  82
ATOM     82  CB  TYR A   9      -0.916  15.402   7.156  0.00  0.00    +0.055 C 
BRANCH  82  83
ATOM     83  CG  TYR A   9      -0.656  16.838   7.604  0.00  0.00    -0.020 A 
ATOM     84  CD2 TYR A   9       0.570  17.218   8.146  0.00  0.00    -0.001 A 
ATOM     85  CE2 TYR A   9       0.813  18.516   8.541  0.00  0.00    +0.036 A 
ATOM     86  CZ  TYR A   9      -0.174  19.463   8.441  0.00  0.00    +0.134 A 
ATOM     87  CE1 TYR A   9      -1.407  19.120   7.931  0.00  0.00    +0.036 A 
ATOM     88  CD1 TYR A   9      -1.641  17.810   7.511  0.00  0.00    -0.001 A 
BRANCH  86  89
ATOM     89  OH  TYR A   9       0.088  20.756   8.859  0.00  0.00    -0.506 OA
ATOM     90  HH  TYR A   9      -0.029  21.378   8.098  0.00  0.00    +0.292 HD
ENDBRANCH  86  89
ENDBRANCH  82  83
ENDBRANCH  70  82
ENDBRANCH  67  70
ENDBRANCH  65  66
BRANCH  65  91
ATOM     91  CB  HIS A   8       4.423  14.338   5.664  0.00  0.00    +0.076 C 
BRANCH  91  92
ATOM     92  CG  HIS A   8       4.190  15.677   6.283  0.00  0.00    +0.082 A 
ATOM     93  CD2 HIS A   8       4.563  16.181   7.483  0.00  0.00    +0.115 A 
ATOM     94  NE2 HIS A   8       4.136  17.485   7.532  0.00  0.00    -0.221 NA
ATOM     95  CE1 HIS A   8       3.517  17.775   6.397  0.00  0.00    +0.199 A 
ATOM     96  ND1 HIS A   8       3.546  16.708   5.627  0.00  0.00    -0.227 NA
ENDBRANCH  91  92
ENDBRANCH  65  91
ENDBRANCH  63  65
ENDBRANCH  57  61
ENDBRANCH  53  54
BRANCH  53  97
ATOM     97  CB  VAL A   6       3.919   7.897   7.399  0.00  0.00    +0.027 C 
ATOM     98  CG2 VAL A   6       4.556   8.527   8.619  0.00  0.00    +0.002 C 
ATOM     99  CG1 VAL A   6       4.954   7.583   6.300  0.00  0.00    +0.002 C 
ENDBRANCH  53  97
ENDBRANCH  51  53
ENDBRANCH   1  49
BRANCH   1 100
ATOM    100  CB  THR A   5      -0.415  11.489   9.060  0.00  0.00    +0.137 C 
ATOM    101  CG2 THR A   5      -0.953  11.330   7.675  0.00  0.00    +0.034 C 
BRANCH 100 102
ATOM    102  OG1 THR A   5      -1.523  11.565   9.969  0.00  0.00    -0.382 OA
ATOM    103  HG1 THR A   5      -2.089  12.343   9.734  0.00  0.00    +0.210 HD
ENDBRANCH 100 102
ENDBRANCH   1 100
TORSDOF 40
REMARK  Name = ../refined-set-2016/4f7v/4f7v_pocket.pdb
REMARK  248 active torsions:
REMARK  status: ('A' for Active; 'I' for Inactive)
REMARK    1  A    between atoms: _1  and  _3
REMARK    2  A    between atoms: _3  and  _4
REMARK    3  A    between atoms: _3  and  _6
REMARK    4  A    between atoms: _6  and  _7
REMARK    5  A    between atoms: _12  and  _13
REMARK    6  A    between atoms: _15  and  _17
REMARK    7  A    between atoms: _17  and  _18
REMARK    8  A    between atoms: _17  and  _20
REMARK    9  A    between atoms: _20  and  _21
REMARK   10  A    between atoms: _24  and  _26
REMARK   11  A    between atoms: _26  and  _27
REMARK   12  A    between atoms: _30  and  _32
REMARK   13  A    between atoms: _32  and  _33
REMARK   14  A    between atoms: _32  and  _35
REMARK   15  A    between atoms: _35  and  _36
REMARK   16  A    between atoms: _39  and  _41
REMARK   17  A    between atoms: _41  and  _42
REMARK   18  A    between atoms: _44  and  _46
REMARK   19  A    between atoms: _46  and  _47
REMARK   20  A    between atoms: _46  and  _49
REMARK   21  A    between atoms: _49  and  _50
REMARK   22  A    between atoms: _52  and  _54
REMARK   23  A    between atoms: _54  and  _55
REMARK   24  A    between atoms: _54  and  _57
REMARK   25  A    between atoms: _57  and  _58
REMARK   26  A    between atoms: _63  and  _65
REMARK   27  A    between atoms: _65  and  _66
REMARK   28  A    between atoms: _65  and  _68
REMARK   29  A    between atoms: _68  and  _69
REMARK   30  A    between atoms: _74  and  _75
REMARK   31  A    between atoms: _77  and  _79
REMARK   32  A    between atoms: _79  and  _80
REMARK   33  A    between atoms: _79  and  _82
REMARK   34  A    between atoms: _82  and  _83
REMARK   35  A    between atoms: _83  and  _84
REMARK   36  A    between atoms: _84  and  _85
REMARK   37  A    between atoms: _94  and  _96
REMARK   38  A    between atoms: _96  and  _97
REMARK   39  A    between atoms: _96  and  _99
REMARK   40  A    between atoms: _99  and  _100
REMARK   41  A    between atoms: _104  and  _105
REMARK   42  A    between atoms: _111  and  _112
REMARK   43  A    between atoms: _117  and  _119
REMARK   44  A    between atoms: _119  and  _120
REMARK   45  A    between atoms: _119  and  _122
REMARK   46  A    between atoms: _122  and  _123
REMARK   47  A    between atoms: _126  and  _128
REMARK   48  A    between atoms: _128  and  _129
REMARK   49  A    between atoms: _132  and  _133
REMARK   50  A    between atoms: _138  and  _140
REMARK   51  A    between atoms: _140  and  _141
REMARK   52  A    between atoms: _140  and  _143
REMARK   53  A    between atoms: _143  and  _144
REMARK   54  A    between atoms: _144  and  _145
REMARK   55  A    between atoms: _150  and  _152
REMARK   56  A    between atoms: _152  and  _153
REMARK   57  A    between atoms: _152  and  _155
REMARK   58  A    between atoms: _155  and  _156
REMARK   59  A    between atoms: _156  and  _157
REMARK   60  A    between atoms: _163  and  _164
REMARK   61  A    between atoms: _169  and  _171
REMARK   62  A    between atoms: _171  and  _172
REMARK   63  A    between atoms: _171  and  _174
REMARK   64  A    between atoms: _174  and  _175
REMARK   65  A    between atoms: _178  and  _180
REMARK   66  A    between atoms: _180  and  _181
REMARK   67  A    between atoms: _180  and  _183
REMARK   68  A    between atoms: _183  and  _184
REMARK   69  A    between atoms: _189  and  _190
REMARK   70  A    between atoms: _192  and  _194
REMARK   71  A    between atoms: _194  and  _195
REMARK   72  A    between atoms: _194  and  _197
REMARK   73  A    between atoms: _197  and  _198
REMARK   74  A    between atoms: _201  and  _203
REMARK   75  A    between atoms: _203  and  _204
REMARK   76  A    between atoms: _203  and  _206
REMARK   77  A    between atoms: _206  and  _207
REMARK   78  A    between atoms: _212  and  _214
REMARK   79  A    between atoms: _214  and  _215
REMARK   80  A    between atoms: _218  and  _220
REMARK   81  A    between atoms: _220  and  _221
REMARK   82  A    between atoms: _220  and  _223
REMARK   83  A    between atoms: _223  and  _224
REMARK   84  A    between atoms: _227  and  _229
REMARK   85  A    between atoms: _229  and  _230
REMARK   86  A    between atoms: _229  and  _232
REMARK   87  A    between atoms: _232  and  _233
REMARK   88  A    between atoms: _236  and  _238
REMARK   89  A    between atoms: _238  and  _239
REMARK   90  A    between atoms: _238  and  _241
REMARK   91  A    between atoms: _241  and  _242
REMARK   92  A    between atoms: _245  and  _247
REMARK   93  A    between atoms: _247  and  _248
REMARK   94  A    between atoms: _247  and  _250
REMARK   95  A    between atoms: _250  and  _251
REMARK   96  A    between atoms: _251  and  _252
REMARK   97  A    between atoms: _257  and  _259
REMARK   98  A    between atoms: _259  and  _260
REMARK   99  A    between atoms: _259  and  _262
REMARK  100  A    between atoms: _262  and  _263
REMARK  101  A    between atoms: _263  and  _264
REMARK  102  A    between atoms: _264  and  _265
REMARK  103  A    between atoms: _274  and  _276
REMARK  104  A    between atoms: _276  and  _277
REMARK  105  A    between atoms: _276  and  _279
REMARK  106  A    between atoms: _279  and  _280
REMARK  107  A    between atoms: _280  and  _281
REMARK  108  A    between atoms: _284  and  _286
REMARK  109  A    between atoms: _286  and  _287
REMARK  110  A    between atoms: _286  and  _289
REMARK  111  A    between atoms: _289  and  _290
REMARK  112  A    between atoms: _293  and  _295
REMARK  113  A    between atoms: _295  and  _296
REMARK  114  A    between atoms: _295  and  _298
REMARK  115  A    between atoms: _298  and  _299
REMARK  116  A    between atoms: _299  and  _300
REMARK  117  A    between atoms: _300  and  _301
REMARK  118  A    between atoms: _310  and  _312
REMARK  119  A    between atoms: _312  and  _313
REMARK  120  A    between atoms: _312  and  _315
REMARK  121  A    between atoms: _315  and  _316
REMARK  122  A    between atoms: _316  and  _317
REMARK  123  A    between atoms: _317  and  _318
REMARK  124  A    between atoms: _318  and  _319
REMARK  125  A    between atoms: _323  and  _325
REMARK  126  A    between atoms: _325  and  _326
REMARK  127  A    between atoms: _329  and  _331
REMARK  128  A    between atoms: _331  and  _332
REMARK  129  A    between atoms: _331  and  _334
REMARK  130  A    between atoms: _334  and  _335
REMARK  131  A    between atoms: _335  and  _336
REMARK  132  A    between atoms: _339  and  _341
REMARK  133  A    between atoms: _341  and  _342
REMARK  134  A    between atoms: _341  and  _344
REMARK  135  A    between atoms: _344  and  _345
REMARK  136  A    between atoms: _345  and  _346
REMARK  137  A    between atoms: _346  and  _347
REMARK  138  A    between atoms: _356  and  _358
REMARK  139  A    between atoms: _358  and  _359
REMARK  140  A    between atoms: _358  and  _361
REMARK  141  A    between atoms: _361  and  _362
REMARK  142  A    between atoms: _372  and  _374
REMARK  143  A    between atoms: _374  and  _375
REMARK  144  A    between atoms: _378  and  _379
REMARK  145  A    between atoms: _384  and  _386
REMARK  146  A    between atoms: _386  and  _387
REMARK  147  A    between atoms: _386  and  _389
REMARK  148  A    between atoms: _389  and  _390
REMARK  149  A    between atoms: _390  and  _391
REMARK  150  A    between atoms: _391  and  _392
REMARK  151  A    between atoms: _401  and  _403
REMARK  152  A    between atoms: _403  and  _404
REMARK  153  A    between atoms: _403  and  _406
REMARK  154  A    between atoms: _406  and  _407
REMARK  155  A    between atoms: _410  and  _412
REMARK  156  A    between atoms: _412  and  _413
REMARK  157  A    between atoms: _412  and  _415
REMARK  158  A    between atoms: _415  and  _416
REMARK  159  A    between atoms: _419  and  _421
REMARK  160  A    between atoms: _421  and  _422
REMARK  161  A    between atoms: _421  and  _424
REMARK  162  A    between atoms: _424  and  _425
REMARK  163  A    between atoms: _428  and  _430
REMARK  164  A    between atoms: _430  and  _431
REMARK  165  A    between atoms: _430  and  _433
REMARK  166  A    between atoms: _433  and  _434
REMARK  167  A    between atoms: _437  and  _439
REMARK  168  A    between atoms: _439  and  _440
REMARK  169  A    between atoms: _439  and  _442
REMARK  170  A    between atoms: _442  and  _443
REMARK  171  A    between atoms: _446  and  _448
REMARK  172  A    between atoms: _448  and  _449
REMARK  173  A    between atoms: _448  and  _451
REMARK  174  A    between atoms: _451  and  _452
REMARK  175  A    between atoms: _452  and  _453
REMARK  176  A    between atoms: _455  and  _457
REMARK  177  A    between atoms: _457  and  _458
REMARK  178  A    between atoms: _457  and  _460
REMARK  179  A    between atoms: _460  and  _461
REMARK  180  A    between atoms: _464  and  _466
REMARK  181  A    between atoms: _466  and  _467
REMARK  182  A    between atoms: _466  and  _469
REMARK  183  A    between atoms: _469  and  _470
REMARK  184  A    between atoms: _476  and  _478
REMARK  185  A    between atoms: _478  and  _479
REMARK  186  A    between atoms: _478  and  _481
REMARK  187  A    between atoms: _481  and  _482
REMARK  188  A    between atoms: _485  and  _487
REMARK  189  A    between atoms: _487  and  _488
REMARK  190  A    between atoms: _487  and  _490
REMARK  191  A    between atoms: _490  and  _491
REMARK  192  A    between atoms: _494  and  _496
REMARK  193  A    between atoms: _496  and  _497
REMARK  194  A    between atoms: _496  and  _499
REMARK  195  A    between atoms: _499  and  _500
REMARK  196  A    between atoms: _500  and  _501
REMARK  197  A    between atoms: _504  and  _506
REMARK  198  A    between atoms: _506  and  _507
REMARK  199  A    between atoms: _506  and  _509
REMARK  200  A    between atoms: _509  and  _510
REMARK  201  A    between atoms: _510  and  _511
REMARK  202  A    between atoms: _511  and  _512
REMARK  203  A    between atoms: _521  and  _523
REMARK  204  A    between atoms: _523  and  _524
REMARK  205  A    between atoms: _523  and  _526
REMARK  206  A    between atoms: _526  and  _527
REMARK  207  A    between atoms: _530  and  _532
REMARK  208  A    between atoms: _532  and  _533
REMARK  209  A    between atoms: _532  and  _535
REMARK  210  A    between atoms: _535  and  _536
REMARK  211  A    between atoms: _539  and  _541
REMARK  212  A    between atoms: _541  and  _542
REMARK  213  A    between atoms: _541  and  _544
REMARK  214  A    between atoms: _548  and  _549
REMARK  215  A    between atoms: _554  and  _556
REMARK  216  A    between atoms: _556  and  _557
REMARK  217  A    between atoms: _556  and  _559
REMARK  218  A    between atoms: _559  and  _560
REMARK  219  A    between atoms: _565  and  _567
REMARK  220  A    between atoms: _567  and  _568
REMARK  221  A    between atoms: _567  and  _570
REMARK  222  A    between atoms: _570  and  _571
REMARK  223  A    between atoms: _576  and  _577
REMARK  224  A    between atoms: _579  and  _581
REMARK  225  A    between atoms: _581  and  _582
REMARK  226  A    between atoms: _581  and  _584
REMARK  227  A    between atoms: _584  and  _585
REMARK  228  A    between atoms: _588  and  _590
REMARK  229  A    between atoms: _590  and  _591
REMARK  230  A    between atoms: _590  and  _593
REMARK  231  A    between atoms: _593  and  _594
REMARK  232  A    between atoms: _594  and  _595
REMARK  233  A    between atoms: _595  and  _596
REMARK  234  A    between atoms: _605  and  _607
REMARK  235  A    between atoms: _607  and  _608
REMARK  236  A    between atoms: _610  and  _612
REMARK  237  A    between atoms: _612  and  _613
REMARK  238  A    between atoms: _612  and  _615
REMARK  239  A    between atoms: _615  and  _616
REMARK  240  A    between atoms: _622  and  _624
REMARK  241  A    between atoms: _624  and  _625
REMARK  242  A    between atoms: _624  and  _627
REMARK  243  A    between atoms: _627  and  _628
REMARK  244  A    between atoms: _628  and  _629
REMARK  245  A    between atoms: _631  and  _633
REMARK  246  A    between atoms: _633  and  _634
REMARK  247  A    between atoms: _633  and  _636
REMARK  248  A    between atoms: _636  and  _637
REMARK                            x       y       z     vdW  Elec       q    Type
REMARK                         _______ _______ _______ _____ _____    ______ ____
ROOT
ATOM      1  C   GLY A   2       8.489  22.927  -1.534  0.00  0.00    +0.243 C 
ATOM      2  N   PHE A   3       8.454  23.542  -0.368  0.00  0.00    -0.297 N 
ATOM      3  H   PHE A   3       7.576  24.006  -0.059  0.00  0.00    +0.150 HD
ATOM      4  O   GLY A   2       9.481  22.370  -1.948  0.00  0.00    -0.273 OA
ENDROOT
BRANCH   2   5
ATOM      5  CA  PHE A   3       9.645  23.580   0.505  0.00  0.00    +0.153 C 
BRANCH   5   6
ATOM      6  C   PHE A   3       9.981  22.225   1.127  0.00  0.00    +0.241 C 
ATOM      7  O   PHE A   3      11.076  22.035   1.645  0.00  0.00    -0.273 OA
ATOM      8  N   MET A   4       9.038  21.272   1.077  0.00  0.00    -0.298 N 
ATOM      9  H   MET A   4       8.085  21.522   0.744  0.00  0.00    +0.150 HD
BRANCH   8  10
ATOM     10  CA  MET A   4       9.311  19.897   1.476  0.00  0.00    +0.138 C 
BRANCH  10  11
ATOM     11  C   MET A   4       9.631  19.049   0.257  0.00  0.00    +0.227 C 
ATOM     12  O   MET A   4      10.493  18.184   0.313  0.00  0.00    -0.286 OA
ENDBRANCH  10  11
BRANCH  10  13
ATOM     13  CB  MET A   4       8.114  19.270   2.216  0.00  0.00    +0.039 C 
BRANCH  13  14
ATOM     14  CG  MET A   4       7.773  19.980   3.462  0.00  0.00    +0.060 C 
BRANCH  14  15
ATOM     15  SD  MET A   4       6.370  19.245   4.362  0.00  0.00    -0.139 S 
ATOM     16  CE  MET A   4       7.203  18.005   5.312  0.00  0.00    +0.069 C 
ENDBRANCH  14  15
ENDBRANCH  13  14
ENDBRANCH  10  13
ENDBRANCH   8  10
ENDBRANCH   5   6
BRANCH   5  17
ATOM     17  CB  PHE A   3       9.548  24.697   1.548  0.00  0.00    +0.055 C 
BRANCH  17  18
ATOM     18  CG  PHE A   3       8.368  24.594   2.486  0.00  0.00    -0.020 A 
ATOM     19  CD2 PHE A   3       8.393  23.753   3.569  0.00  0.00    -0.004 A 
ATOM     20  CE2 PHE A   3       7.326  23.682   4.449  0.00  0.00    -0.000 A 
ATOM     21  CZ  PHE A   3       6.247  24.486   4.258  0.00  0.00    -0.000 A 
ATOM     22  CE1 PHE A   3       6.212  25.357   3.196  0.00  0.00    -0.000 A 
ATOM     23  CD1 PHE A   3       7.288  25.428   2.324  0.00  0.00    -0.004 A 
ENDBRANCH  17  18
ENDBRANCH   5  17
ENDBRANCH   2   5
BRANCH   1  24
ATOM     24  CA  GLY A   2       7.217  22.930  -2.354  0.00  0.00    +0.176 C 
BRANCH  24  27
ATOM     25  C   ARG A   1       5.781  22.072  -0.633  0.00  0.00    +0.238 C 
ATOM     26  O   ARG A   1       6.511  21.097  -0.481  0.00  0.00    -0.274 OA
ATOM     27  N   GLY A   2       6.036  23.023  -1.509  0.00  0.00    -0.296 N 
ATOM     28  H   GLY A   2       5.395  23.837  -1.596  0.00  0.00    +0.150 HD
BRANCH  25  29
ATOM     29  CA  ARG A   1       4.513  22.243   0.193  0.00  0.00    +0.145 C 
BRANCH  29  30
ATOM     30  N   ARG A   1       3.423  21.433  -0.340  0.00  0.00    -0.238 NA
ATOM     31  H   ARG A   1       3.549  20.404  -0.427  0.00  0.00    +0.142 HD
ENDBRANCH  29  30
BRANCH  29  32
ATOM     32  CB  ARG A   1       4.778  21.829   1.638  0.00  0.00    +0.030 C 
BRANCH  32  33
ATOM     33  CG  ARG A   1       3.587  22.108   2.523  0.00  0.00    +0.045 C 
BRANCH  33  34
ATOM     34  CD  ARG A   1       3.817  21.667   3.944  0.00  0.00    +0.174 C 
BRANCH  34  35
ATOM     35  NE  ARG A   1       2.639  21.978   4.733  0.00  0.00    -0.265 N 
ATOM     36  CZ  ARG A   1       2.612  22.193   6.046  0.00  0.00    +0.342 C 
ATOM     37  NH2 ARG A   1       3.709  22.115   6.781  0.00  0.00    -0.292 N 
ATOM     38 HH21 ARG A   1       3.662  22.287   7.806  0.00  0.00    +0.255 HD
ATOM     39 HH22 ARG A   1       4.619  21.881   6.334  0.00  0.00    +0.255 HD
ATOM     40  NH1 ARG A   1       1.458  22.478   6.622  0.00  0.00    -0.292 N 
ATOM     41 HH11 ARG A   1       1.417  22.649   7.647  0.00  0.00    +0.255 HD
ATOM     42 HH12 ARG A   1       0.591  22.531   6.051  0.00  0.00    +0.255 HD
ATOM     43  HE  ARG A   1       1.733  22.038   4.226  0.00  0.00    +0.259 HD
ENDBRANCH  34  35
ENDBRANCH  33  34
ENDBRANCH  32  33
ENDBRANCH  29  32
ENDBRANCH  25  29
ENDBRANCH  24  27
ENDBRANCH   1  24
TORSDOF 17
REMARK  Name = ../refined-set-2016/4f7v/4f7v_pocket.pdb
REMARK  248 active torsions:
REMARK  status: ('A' for Active; 'I' for Inactive)
REMARK    1  A    between atoms: _1  and  _3
REMARK    2  A    between atoms: _3  and  _4
REMARK    3  A    between atoms: _3  and  _6
REMARK    4  A    between atoms: _6  and  _7
REMARK    5  A    between atoms: _12  and  _13
REMARK    6  A    between atoms: _15  and  _17
REMARK    7  A    between atoms: _17  and  _18
REMARK    8  A    between atoms: _17  and  _20
REMARK    9  A    between atoms: _20  and  _21
REMARK   10  A    between atoms: _24  and  _26
REMARK   11  A    between atoms: _26  and  _27
REMARK   12  A    between atoms: _30  and  _32
REMARK   13  A    between atoms: _32  and  _33
REMARK   14  A    between atoms: _32  and  _35
REMARK   15  A    between atoms: _35  and  _36
REMARK   16  A    between atoms: _39  and  _41
REMARK   17  A    between atoms: _41  and  _42
REMARK   18  A    between atoms: _44  and  _46
REMARK   19  A    between atoms: _46  and  _47
REMARK   20  A    between atoms: _46  and  _49
REMARK   21  A    between atoms: _49  and  _50
REMARK   22  A    between atoms: _52  and  _54
REMARK   23  A    between atoms: _54  and  _55
REMARK   24  A    between atoms: _54  and  _57
REMARK   25  A    between atoms: _57  and  _58
REMARK   26  A    between atoms: _63  and  _65
REMARK   27  A    between atoms: _65  and  _66
REMARK   28  A    between atoms: _65  and  _68
REMARK   29  A    between atoms: _68  and  _69
REMARK   30  A    between atoms: _74  and  _75
REMARK   31  A    between atoms: _77  and  _79
REMARK   32  A    between atoms: _79  and  _80
REMARK   33  A    between atoms: _79  and  _82
REMARK   34  A    between atoms: _82  and  _83
REMARK   35  A    between atoms: _83  and  _84
REMARK   36  A    between atoms: _84  and  _85
REMARK   37  A    between atoms: _94  and  _96
REMARK   38  A    between atoms: _96  and  _97
REMARK   39  A    between atoms: _96  and  _99
REMARK   40  A    between atoms: _99  and  _100
REMARK   41  A    between atoms: _104  and  _105
REMARK   42  A    between atoms: _111  and  _112
REMARK   43  A    between atoms: _117  and  _119
REMARK   44  A    between atoms: _119  and  _120
REMARK   45  A    between atoms: _119  and  _122
REMARK   46  A    between atoms: _122  and  _123
REMARK   47  A    between atoms: _126  and  _128
REMARK   48  A    between atoms: _128  and  _129
REMARK   49  A    between atoms: _132  and  _133
REMARK   50  A    between atoms: _138  and  _140
REMARK   51  A    between atoms: _140  and  _141
REMARK   52  A    between atoms: _140  and  _143
REMARK   53  A    between atoms: _143  and  _144
REMARK   54  A    between atoms: _144  and  _145
REMARK   55  A    between atoms: _150  and  _152
REMARK   56  A    between atoms: _152  and  _153
REMARK   57  A    between atoms: _152  and  _155
REMARK   58  A    between atoms: _155  and  _156
REMARK   59  A    between atoms: _156  and  _157
REMARK   60  A    between atoms: _163  and  _164
REMARK   61  A    between atoms: _169  and  _171
REMARK   62  A    between atoms: _171  and  _172
REMARK   63  A    between atoms: _171  and  _174
REMARK   64  A    between atoms: _174  and  _175
REMARK   65  A    between atoms: _178  and  _180
REMARK   66  A    between atoms: _180  and  _181
REMARK   67  A    between atoms: _180  and  _183
REMARK   68  A    between atoms: _183  and  _184
REMARK   69  A    between atoms: _189  and  _190
REMARK   70  A    between atoms: _192  and  _194
REMARK   71  A    between atoms: _194  and  _195
REMARK   72  A    between atoms: _194  and  _197
REMARK   73  A    between atoms: _197  and  _198
REMARK   74  A    between atoms: _201  and  _203
REMARK   75  A    between atoms: _203  and  _204
REMARK   76  A    between atoms: _203  and  _206
REMARK   77  A    between atoms: _206  and  _207
REMARK   78  A    between atoms: _212  and  _214
REMARK   79  A    between atoms: _214  and  _215
REMARK   80  A    between atoms: _218  and  _220
REMARK   81  A    between atoms: _220  and  _221
REMARK   82  A    between atoms: _220  and  _223
REMARK   83  A    between atoms: _223  and  _224
REMARK   84  A    between atoms: _227  and  _229
REMARK   85  A    between atoms: _229  and  _230
REMARK   86  A    between atoms: _229  and  _232
REMARK   87  A    between atoms: _232  and  _233
REMARK   88  A    between atoms: _236  and  _238
REMARK   89  A    between atoms: _238  and  _239
REMARK   90  A    between atoms: _238  and  _241
REMARK   91  A    between atoms: _241  and  _242
REMARK   92  A    between atoms: _245  and  _247
REMARK   93  A    between atoms: _247  and  _248
REMARK   94  A    between atoms: _247  and  _250
REMARK   95  A    between atoms: _250  and  _251
REMARK   96  A    between atoms: _251  and  _252
REMARK   97  A    between atoms: _257  and  _259
REMARK   98  A    between atoms: _259  and  _260
REMARK   99  A    between atoms: _259  and  _262
REMARK  100  A    between atoms: _262  and  _263
REMARK  101  A    between atoms: _263  and  _264
REMARK  102  A    between atoms: _264  and  _265
REMARK  103  A    between atoms: _274  and  _276
REMARK  104  A    between atoms: _276  and  _277
REMARK  105  A    between atoms: _276  and  _279
REMARK  106  A    between atoms: _279  and  _280
REMARK  107  A    between atoms: _280  and  _281
REMARK  108  A    between atoms: _284  and  _286
REMARK  109  A    between atoms: _286  and  _287
REMARK  110  A    between atoms: _286  and  _289
REMARK  111  A    between atoms: _289  and  _290
REMARK  112  A    between atoms: _293  and  _295
REMARK  113  A    between atoms: _295  and  _296
REMARK  114  A    between atoms: _295  and  _298
REMARK  115  A    between atoms: _298  and  _299
REMARK  116  A    between atoms: _299  and  _300
REMARK  117  A    between atoms: _300  and  _301
REMARK  118  A    between atoms: _310  and  _312
REMARK  119  A    between atoms: _312  and  _313
REMARK  120  A    between atoms: _312  and  _315
REMARK  121  A    between atoms: _315  and  _316
REMARK  122  A    between atoms: _316  and  _317
REMARK  123  A    between atoms: _317  and  _318
REMARK  124  A    between atoms: _318  and  _319
REMARK  125  A    between atoms: _323  and  _325
REMARK  126  A    between atoms: _325  and  _326
REMARK  127  A    between atoms: _329  and  _331
REMARK  128  A    between atoms: _331  and  _332
REMARK  129  A    between atoms: _331  and  _334
REMARK  130  A    between atoms: _334  and  _335
REMARK  131  A    between atoms: _335  and  _336
REMARK  132  A    between atoms: _339  and  _341
REMARK  133  A    between atoms: _341  and  _342
REMARK  134  A    between atoms: _341  and  _344
REMARK  135  A    between atoms: _344  and  _345
REMARK  136  A    between atoms: _345  and  _346
REMARK  137  A    between atoms: _346  and  _347
REMARK  138  A    between atoms: _356  and  _358
REMARK  139  A    between atoms: _358  and  _359
REMARK  140  A    between atoms: _358  and  _361
REMARK  141  A    between atoms: _361  and  _362
REMARK  142  A    between atoms: _372  and  _374
REMARK  143  A    between atoms: _374  and  _375
REMARK  144  A    between atoms: _378  and  _379
REMARK  145  A    between atoms: _384  and  _386
REMARK  146  A    between atoms: _386  and  _387
REMARK  147  A    between atoms: _386  and  _389
REMARK  148  A    between atoms: _389  and  _390
REMARK  149  A    between atoms: _390  and  _391
REMARK  150  A    between atoms: _391  and  _392
REMARK  151  A    between atoms: _401  and  _403
REMARK  152  A    between atoms: _403  and  _404
REMARK  153  A    between atoms: _403  and  _406
REMARK  154  A    between atoms: _406  and  _407
REMARK  155  A    between atoms: _410  and  _412
REMARK  156  A    between atoms: _412  and  _413
REMARK  157  A    between atoms: _412  and  _415
REMARK  158  A    between atoms: _415  and  _416
REMARK  159  A    between atoms: _419  and  _421
REMARK  160  A    between atoms: _421  and  _422
REMARK  161  A    between atoms: _421  and  _424
REMARK  162  A    between atoms: _424  and  _425
REMARK  163  A    between atoms: _428  and  _430
REMARK  164  A    between atoms: _430  and  _431
REMARK  165  A    between atoms: _430  and  _433
REMARK  166  A    between atoms: _433  and  _434
REMARK  167  A    between atoms: _437  and  _439
REMARK  168  A    between atoms: _439  and  _440
REMARK  169  A    between atoms: _439  and  _442
REMARK  170  A    between atoms: _442  and  _443
REMARK  171  A    between atoms: _446  and  _448
REMARK  172  A    between atoms: _448  and  _449
REMARK  173  A    between atoms: _448  and  _451
REMARK  174  A    between atoms: _451  and  _452
REMARK  175  A    between atoms: _452  and  _453
REMARK  176  A    between atoms: _455  and  _457
REMARK  177  A    between atoms: _457  and  _458
REMARK  178  A    between atoms: _457  and  _460
REMARK  179  A    between atoms: _460  and  _461
REMARK  180  A    between atoms: _464  and  _466
REMARK  181  A    between atoms: _466  and  _467
REMARK  182  A    between atoms: _466  and  _469
REMARK  183  A    between atoms: _469  and  _470
REMARK  184  A    between atoms: _476  and  _478
REMARK  185  A    between atoms: _478  and  _479
REMARK  186  A    between atoms: _478  and  _481
REMARK  187  A    between atoms: _481  and  _482
REMARK  188  A    between atoms: _485  and  _487
REMARK  189  A    between atoms: _487  and  _488
REMARK  190  A    between atoms: _487  and  _490
REMARK  191  A    between atoms: _490  and  _491
REMARK  192  A    between atoms: _494  and  _496
REMARK  193  A    between atoms: _496  and  _497
REMARK  194  A    between atoms: _496  and  _499
REMARK  195  A    between atoms: _499  and  _500
REMARK  196  A    between atoms: _500  and  _501
REMARK  197  A    between atoms: _504  and  _506
REMARK  198  A    between atoms: _506  and  _507
REMARK  199  A    between atoms: _506  and  _509
REMARK  200  A    between atoms: _509  and  _510
REMARK  201  A    between atoms: _510  and  _511
REMARK  202  A    between atoms: _511  and  _512
REMARK  203  A    between atoms: _521  and  _523
REMARK  204  A    between atoms: _523  and  _524
REMARK  205  A    between atoms: _523  and  _526
REMARK  206  A    between atoms: _526  and  _527
REMARK  207  A    between atoms: _530  and  _532
REMARK  208  A    between atoms: _532  and  _533
REMARK  209  A    between atoms: _532  and  _535
REMARK  210  A    between atoms: _535  and  _536
REMARK  211  A    between atoms: _539  and  _541
REMARK  212  A    between atoms: _541  and  _542
REMARK  213  A    between atoms: _541  and  _544
REMARK  214  A    between atoms: _548  and  _549
REMARK  215  A    between atoms: _554  and  _556
REMARK  216  A    between atoms: _556  and  _557
REMARK  217  A    between atoms: _556  and  _559
REMARK  218  A    between atoms: _559  and  _560
REMARK  219  A    between atoms: _565  and  _567
REMARK  220  A    between atoms: _567  and  _568
REMARK  221  A    between atoms: _567  and  _570
REMARK  222  A    between atoms: _570  and  _571
REMARK  223  A    between atoms: _576  and  _577
REMARK  224  A    between atoms: _579  and  _581
REMARK  225  A    between atoms: _581  and  _582
REMARK  226  A    between atoms: _581  and  _584
REMARK  227  A    between atoms: _584  and  _585
REMARK  228  A    between atoms: _588  and  _590
REMARK  229  A    between atoms: _590  and  _591
REMARK  230  A    between atoms: _590  and  _593
REMARK  231  A    between atoms: _593  and  _594
REMARK  232  A    between atoms: _594  and  _595
REMARK  233  A    between atoms: _595  and  _596
REMARK  234  A    between atoms: _605  and  _607
REMARK  235  A    between atoms: _607  and  _608
REMARK  236  A    between atoms: _610  and  _612
REMARK  237  A    between atoms: _612  and  _613
REMARK  238  A    between atoms: _612  and  _615
REMARK  239  A    between atoms: _615  and  _616
REMARK  240  A    between atoms: _622  and  _624
REMARK  241  A    between atoms: _624  and  _625
REMARK  242  A    between atoms: _624  and  _627
REMARK  243  A    between atoms: _627  and  _628
REMARK  244  A    between atoms: _628  and  _629
REMARK  245  A    between atoms: _631  and  _633
REMARK  246  A    between atoms: _633  and  _634
REMARK  247  A    between atoms: _633  and  _636
REMARK  248  A    between atoms: _636  and  _637
REMARK                            x       y       z     vdW  Elec       q    Type
REMARK                         _______ _______ _______ _____ _____    ______ ____
ROOT
ATOM      1  CA  LEU A   1      13.869  27.109  -4.369  0.00  0.00    +0.133 C 
ENDROOT
BRANCH   1   2
ATOM      2  N   LEU A   1      13.384  26.454  -5.569  0.00  0.00    -0.239 NA
ATOM      3  H   LEU A   1      13.675  25.476  -5.769  0.00  0.00    +0.142 HD
ENDBRANCH   1   2
BRANCH   1   4
ATOM      4  C   LEU A   1      15.274  27.676  -4.565  0.00  0.00    +0.224 C 
ATOM      5  O   LEU A   1      16.068  27.160  -5.354  0.00  0.00    -0.287 OA
ENDBRANCH   1   4
BRANCH   1   6
ATOM      6  CB  LEU A   1      13.905  26.092  -3.238  0.00  0.00    +0.025 C 
BRANCH   6   7
ATOM      7  CG  LEU A   1      12.618  25.309  -3.009  0.00  0.00    +0.002 C 
ATOM      8  CD2 LEU A   1      12.866  24.331  -1.850  0.00  0.00    +0.000 C 
ATOM      9  CD1 LEU A   1      11.490  26.266  -2.737  0.00  0.00    +0.000 C 
ENDBRANCH   6   7
ENDBRANCH   1   6
TORSDOF 4
REMARK  Name = ../refined-set-2016/4f7v/4f7v_pocket.pdb
REMARK  248 active torsions:
REMARK  status: ('A' for Active; 'I' for Inactive)
REMARK    1  A    between atoms: _1  and  _3
REMARK    2  A    between atoms: _3  and  _4
REMARK    3  A    between atoms: _3  and  _6
REMARK    4  A    between atoms: _6  and  _7
REMARK    5  A    between atoms: _12  and  _13
REMARK    6  A    between atoms: _15  and  _17
REMARK    7  A    between atoms: _17  and  _18
REMARK    8  A    between atoms: _17  and  _20
REMARK    9  A    between atoms: _20  and  _21
REMARK   10  A    between atoms: _24  and  _26
REMARK   11  A    between atoms: _26  and  _27
REMARK   12  A    between atoms: _30  and  _32
REMARK   13  A    between atoms: _32  and  _33
REMARK   14  A    between atoms: _32  and  _35
REMARK   15  A    between atoms: _35  and  _36
REMARK   16  A    between atoms: _39  and  _41
REMARK   17  A    between atoms: _41  and  _42
REMARK   18  A    between atoms: _44  and  _46
REMARK   19  A    between atoms: _46  and  _47
REMARK   20  A    between atoms: _46  and  _49
REMARK   21  A    between atoms: _49  and  _50
REMARK   22  A    between atoms: _52  and  _54
REMARK   23  A    between atoms: _54  and  _55
REMARK   24  A    between atoms: _54  and  _57
REMARK   25  A    between atoms: _57  and  _58
REMARK   26  A    between atoms: _63  and  _65
REMARK   27  A    between atoms: _65  and  _66
REMARK   28  A    between atoms: _65  and  _68
REMARK   29  A    between atoms: _68  and  _69
REMARK   30  A    between atoms: _74  and  _75
REMARK   31  A    between atoms: _77  and  _79
REMARK   32  A    between atoms: _79  and  _80
REMARK   33  A    between atoms: _79  and  _82
REMARK   34  A    between atoms: _82  and  _83
REMARK   35  A    between atoms: _83  and  _84
REMARK   36  A    between atoms: _84  and  _85
REMARK   37  A    between atoms: _94  and  _96
REMARK   38  A    between atoms: _96  and  _97
REMARK   39  A    between atoms: _96  and  _99
REMARK   40  A    between atoms: _99  and  _100
REMARK   41  A    between atoms: _104  and  _105
REMARK   42  A    between atoms: _111  and  _112
REMARK   43  A    between atoms: _117  and  _119
REMARK   44  A    between atoms: _119  and  _120
REMARK   45  A    between atoms: _119  and  _122
REMARK   46  A    between atoms: _122  and  _123
REMARK   47  A    between atoms: _126  and  _128
REMARK   48  A    between atoms: _128  and  _129
REMARK   49  A    between atoms: _132  and  _133
REMARK   50  A    between atoms: _138  and  _140
REMARK   51  A    between atoms: _140  and  _141
REMARK   52  A    between atoms: _140  and  _143
REMARK   53  A    between atoms: _143  and  _144
REMARK   54  A    between atoms: _144  and  _145
REMARK   55  A    between atoms: _150  and  _152
REMARK   56  A    between atoms: _152  and  _153
REMARK   57  A    between atoms: _152  and  _155
REMARK   58  A    between atoms: _155  and  _156
REMARK   59  A    between atoms: _156  and  _157
REMARK   60  A    between atoms: _163  and  _164
REMARK   61  A    between atoms: _169  and  _171
REMARK   62  A    between atoms: _171  and  _172
REMARK   63  A    between atoms: _171  and  _174
REMARK   64  A    between atoms: _174  and  _175
REMARK   65  A    between atoms: _178  and  _180
REMARK   66  A    between atoms: _180  and  _181
REMARK   67  A    between atoms: _180  and  _183
REMARK   68  A    between atoms: _183  and  _184
REMARK   69  A    between atoms: _189  and  _190
REMARK   70  A    between atoms: _192  and  _194
REMARK   71  A    between atoms: _194  and  _195
REMARK   72  A    between atoms: _194  and  _197
REMARK   73  A    between atoms: _197  and  _198
REMARK   74  A    between atoms: _201  and  _203
REMARK   75  A    between atoms: _203  and  _204
REMARK   76  A    between atoms: _203  and  _206
REMARK   77  A    between atoms: _206  and  _207
REMARK   78  A    between atoms: _212  and  _214
REMARK   79  A    between atoms: _214  and  _215
REMARK   80  A    between atoms: _218  and  _220
REMARK   81  A    between atoms: _220  and  _221
REMARK   82  A    between atoms: _220  and  _223
REMARK   83  A    between atoms: _223  and  _224
REMARK   84  A    between atoms: _227  and  _229
REMARK   85  A    between atoms: _229  and  _230
REMARK   86  A    between atoms: _229  and  _232
REMARK   87  A    between atoms: _232  and  _233
REMARK   88  A    between atoms: _236  and  _238
REMARK   89  A    between atoms: _238  and  _239
REMARK   90  A    between atoms: _238  and  _241
REMARK   91  A    between atoms: _241  and  _242
REMARK   92  A    between atoms: _245  and  _247
REMARK   93  A    between atoms: _247  and  _248
REMARK   94  A    between atoms: _247  and  _250
REMARK   95  A    between atoms: _250  and  _251
REMARK   96  A    between atoms: _251  and  _252
REMARK   97  A    between atoms: _257  and  _259
REMARK   98  A    between atoms: _259  and  _260
REMARK   99  A    between atoms: _259  and  _262
REMARK  100  A    between atoms: _262  and  _263
REMARK  101  A    between atoms: _263  and  _264
REMARK  102  A    between atoms: _264  and  _265
REMARK  103  A    between atoms: _274  and  _276
REMARK  104  A    between atoms: _276  and  _277
REMARK  105  A    between atoms: _276  and  _279
REMARK  106  A    between atoms: _279  and  _280
REMARK  107  A    between atoms: _280  and  _281
REMARK  108  A    between atoms: _284  and  _286
REMARK  109  A    between atoms: _286  and  _287
REMARK  110  A    between atoms: _286  and  _289
REMARK  111  A    between atoms: _289  and  _290
REMARK  112  A    between atoms: _293  and  _295
REMARK  113  A    between atoms: _295  and  _296
REMARK  114  A    between atoms: _295  and  _298
REMARK  115  A    between atoms: _298  and  _299
REMARK  116  A    between atoms: _299  and  _300
REMARK  117  A    between atoms: _300  and  _301
REMARK  118  A    between atoms: _310  and  _312
REMARK  119  A    between atoms: _312  and  _313
REMARK  120  A    between atoms: _312  and  _315
REMARK  121  A    between atoms: _315  and  _316
REMARK  122  A    between atoms: _316  and  _317
REMARK  123  A    between atoms: _317  and  _318
REMARK  124  A    between atoms: _318  and  _319
REMARK  125  A    between atoms: _323  and  _325
REMARK  126  A    between atoms: _325  and  _326
REMARK  127  A    between atoms: _329  and  _331
REMARK  128  A    between atoms: _331  and  _332
REMARK  129  A    between atoms: _331  and  _334
REMARK  130  A    between atoms: _334  and  _335
REMARK  131  A    between atoms: _335  and  _336
REMARK  132  A    between atoms: _339  and  _341
REMARK  133  A    between atoms: _341  and  _342
REMARK  134  A    between atoms: _341  and  _344
REMARK  135  A    between atoms: _344  and  _345
REMARK  136  A    between atoms: _345  and  _346
REMARK  137  A    between atoms: _346  and  _347
REMARK  138  A    between atoms: _356  and  _358
REMARK  139  A    between atoms: _358  and  _359
REMARK  140  A    between atoms: _358  and  _361
REMARK  141  A    between atoms: _361  and  _362
REMARK  142  A    between atoms: _372  and  _374
REMARK  143  A    between atoms: _374  and  _375
REMARK  144  A    between atoms: _378  and  _379
REMARK  145  A    between atoms: _384  and  _386
REMARK  146  A    between atoms: _386  and  _387
REMARK  147  A    between atoms: _386  and  _389
REMARK  148  A    between atoms: _389  and  _390
REMARK  149  A    between atoms: _390  and  _391
REMARK  150  A    between atoms: _391  and  _392
REMARK  151  A    between atoms: _401  and  _403
REMARK  152  A    between atoms: _403  and  _404
REMARK  153  A    between atoms: _403  and  _406
REMARK  154  A    between atoms: _406  and  _407
REMARK  155  A    between atoms: _410  and  _412
REMARK  156  A    between atoms: _412  and  _413
REMARK  157  A    between atoms: _412  and  _415
REMARK  158  A    between atoms: _415  and  _416
REMARK  159  A    between atoms: _419  and  _421
REMARK  160  A    between atoms: _421  and  _422
REMARK  161  A    between atoms: _421  and  _424
REMARK  162  A    between atoms: _424  and  _425
REMARK  163  A    between atoms: _428  and  _430
REMARK  164  A    between atoms: _430  and  _431
REMARK  165  A    between atoms: _430  and  _433
REMARK  166  A    between atoms: _433  and  _434
REMARK  167  A    between atoms: _437  and  _439
REMARK  168  A    between atoms: _439  and  _440
REMARK  169  A    between atoms: _439  and  _442
REMARK  170  A    between atoms: _442  and  _443
REMARK  171  A    between atoms: _446  and  _448
REMARK  172  A    between atoms: _448  and  _449
REMARK  173  A    between atoms: _448  and  _451
REMARK  174  A    between atoms: _451  and  _452
REMARK  175  A    between atoms: _452  and  _453
REMARK  176  A    between atoms: _455  and  _457
REMARK  177  A    between atoms: _457  and  _458
REMARK  178  A    between atoms: _457  and  _460
REMARK  179  A    between atoms: _460  and  _461
REMARK  180  A    between atoms: _464  and  _466
REMARK  181  A    between atoms: _466  and  _467
REMARK  182  A    between atoms: _466  and  _469
REMARK  183  A    between atoms: _469  and  _470
REMARK  184  A    between atoms: _476  and  _478
REMARK  185  A    between atoms: _478  and  _479
REMARK  186  A    between atoms: _478  and  _481
REMARK  187  A    between atoms: _481  and  _482
REMARK  188  A    between atoms: _485  and  _487
REMARK  189  A    between atoms: _487  and  _488
REMARK  190  A    between atoms: _487  and  _490
REMARK  191  A    between atoms: _490  and  _491
REMARK  192  A    between atoms: _494  and  _496
REMARK  193  A    between atoms: _496  and  _497
REMARK  194  A    between atoms: _496  and  _499
REMARK  195  A    between atoms: _499  and  _500
REMARK  196  A    between atoms: _500  and  _501
REMARK  197  A    between atoms: _504  and  _506
REMARK  198  A    between atoms: _506  and  _507
REMARK  199  A    between atoms: _506  and  _509
REMARK  200  A    between atoms: _509  and  _510
REMARK  201  A    between atoms: _510  and  _511
REMARK  202  A    between atoms: _511  and  _512
REMARK  203  A    between atoms: _521  and  _523
REMARK  204  A    between atoms: _523  and  _524
REMARK  205  A    between atoms: _523  and  _526
REMARK  206  A    between atoms: _526  and  _527
REMARK  207  A    between atoms: _530  and  _532
REMARK  208  A    between atoms: _532  and  _533
REMARK  209  A    between atoms: _532  and  _535
REMARK  210  A    between atoms: _535  and  _536
REMARK  211  A    between atoms: _539  and  _541
REMARK  212  A    between atoms: _541  and  _542
REMARK  213  A    between atoms: _541  and  _544
REMARK  214  A    between atoms: _548  and  _549
REMARK  215  A    between atoms: _554  and  _556
REMARK  216  A    between atoms: _556  and  _557
REMARK  217  A    between atoms: _556  and  _559
REMARK  218  A    between atoms: _559  and  _560
REMARK  219  A    between atoms: _565  and  _567
REMARK  220  A    between atoms: _567  and  _568
REMARK  221  A    between atoms: _567  and  _570
REMARK  222  A    between atoms: _570  and  _571
REMARK  223  A    between atoms: _576  and  _577
REMARK  224  A    between atoms: _579  and  _581
REMARK  225  A    between atoms: _581  and  _582
REMARK  226  A    between atoms: _581  and  _584
REMARK  227  A    between atoms: _584  and  _585
REMARK  228  A    between atoms: _588  and  _590
REMARK  229  A    between atoms: _590  and  _591
REMARK  230  A    between atoms: _590  and  _593
REMARK  231  A    between atoms: _593  and  _594
REMARK  232  A    between atoms: _594  and  _595
REMARK  233  A    between atoms: _595  and  _596
REMARK  234  A    between atoms: _605  and  _607
REMARK  235  A    between atoms: _607  and  _608
REMARK  236  A    between atoms: _610  and  _612
REMARK  237  A    between atoms: _612  and  _613
REMARK  238  A    between atoms: _612  and  _615
REMARK  239  A    between atoms: _615  and  _616
REMARK  240  A    between atoms: _622  and  _624
REMARK  241  A    between atoms: _624  and  _625
REMARK  242  A    between atoms: _624  and  _627
REMARK  243  A    between atoms: _627  and  _628
REMARK  244  A    between atoms: _628  and  _629
REMARK  245  A    between atoms: _631  and  _633
REMARK  246  A    between atoms: _633  and  _634
REMARK  247  A    between atoms: _633  and  _636
REMARK  248  A    between atoms: _636  and  _637
REMARK                            x       y       z     vdW  Elec       q    Type
REMARK                         _______ _______ _______ _____ _____    ______ ____
ROOT
ATOM      1  O   HOH     1       9.507  15.278  15.302  0.00  0.00    +0.000 OA
ENDROOT
TORSDOF 0
REMARK  Name = ../refined-set-2016/4f7v/4f7v_pocket.pdb
REMARK  248 active torsions:
REMARK  status: ('A' for Active; 'I' for Inactive)
REMARK    1  A    between atoms: _1  and  _3
REMARK    2  A    between atoms: _3  and  _4
REMARK    3  A    between atoms: _3  and  _6
REMARK    4  A    between atoms: _6  and  _7
REMARK    5  A    between atoms: _12  and  _13
REMARK    6  A    between atoms: _15  and  _17
REMARK    7  A    between atoms: _17  and  _18
REMARK    8  A    between atoms: _17  and  _20
REMARK    9  A    between atoms: _20  and  _21
REMARK   10  A    between atoms: _24  and  _26
REMARK   11  A    between atoms: _26  and  _27
REMARK   12  A    between atoms: _30  and  _32
REMARK   13  A    between atoms: _32  and  _33
REMARK   14  A    between atoms: _32  and  _35
REMARK   15  A    between atoms: _35  and  _36
REMARK   16  A    between atoms: _39  and  _41
REMARK   17  A    between atoms: _41  and  _42
REMARK   18  A    between atoms: _44  and  _46
REMARK   19  A    between atoms: _46  and  _47
REMARK   20  A    between atoms: _46  and  _49
REMARK   21  A    between atoms: _49  and  _50
REMARK   22  A    between atoms: _52  and  _54
REMARK   23  A    between atoms: _54  and  _55
REMARK   24  A    between atoms: _54  and  _57
REMARK   25  A    between atoms: _57  and  _58
REMARK   26  A    between atoms: _63  and  _65
REMARK   27  A    between atoms: _65  and  _66
REMARK   28  A    between atoms: _65  and  _68
REMARK   29  A    between atoms: _68  and  _69
REMARK   30  A    between atoms: _74  and  _75
REMARK   31  A    between atoms: _77  and  _79
REMARK   32  A    between atoms: _79  and  _80
REMARK   33  A    between atoms: _79  and  _82
REMARK   34  A    between atoms: _82  and  _83
REMARK   35  A    between atoms: _83  and  _84
REMARK   36  A    between atoms: _84  and  _85
REMARK   37  A    between atoms: _94  and  _96
REMARK   38  A    between atoms: _96  and  _97
REMARK   39  A    between atoms: _96  and  _99
REMARK   40  A    between atoms: _99  and  _100
REMARK   41  A    between atoms: _104  and  _105
REMARK   42  A    between atoms: _111  and  _112
REMARK   43  A    between atoms: _117  and  _119
REMARK   44  A    between atoms: _119  and  _120
REMARK   45  A    between atoms: _119  and  _122
REMARK   46  A    between atoms: _122  and  _123
REMARK   47  A    between atoms: _126  and  _128
REMARK   48  A    between atoms: _128  and  _129
REMARK   49  A    between atoms: _132  and  _133
REMARK   50  A    between atoms: _138  and  _140
REMARK   51  A    between atoms: _140  and  _141
REMARK   52  A    between atoms: _140  and  _143
REMARK   53  A    between atoms: _143  and  _144
REMARK   54  A    between atoms: _144  and  _145
REMARK   55  A    between atoms: _150  and  _152
REMARK   56  A    between atoms: _152  and  _153
REMARK   57  A    between atoms: _152  and  _155
REMARK   58  A    between atoms: _155  and  _156
REMARK   59  A    between atoms: _156  and  _157
REMARK   60  A    between atoms: _163  and  _164
REMARK   61  A    between atoms: _169  and  _171
REMARK   62  A    between atoms: _171  and  _172
REMARK   63  A    between atoms: _171  and  _174
REMARK   64  A    between atoms: _174  and  _175
REMARK   65  A    between atoms: _178  and  _180
REMARK   66  A    between atoms: _180  and  _181
REMARK   67  A    between atoms: _180  and  _183
REMARK   68  A    between atoms: _183  and  _184
REMARK   69  A    between atoms: _189  and  _190
REMARK   70  A    between atoms: _192  and  _194
REMARK   71  A    between atoms: _194  and  _195
REMARK   72  A    between atoms: _194  and  _197
REMARK   73  A    between atoms: _197  and  _198
REMARK   74  A    between atoms: _201  and  _203
REMARK   75  A    between atoms: _203  and  _204
REMARK   76  A    between atoms: _203  and  _206
REMARK   77  A    between atoms: _206  and  _207
REMARK   78  A    between atoms: _212  and  _214
REMARK   79  A    between atoms: _214  and  _215
REMARK   80  A    between atoms: _218  and  _220
REMARK   81  A    between atoms: _220  and  _221
REMARK   82  A    between atoms: _220  and  _223
REMARK   83  A    between atoms: _223  and  _224
REMARK   84  A    between atoms: _227  and  _229
REMARK   85  A    between atoms: _229  and  _230
REMARK   86  A    between atoms: _229  and  _232
REMARK   87  A    between atoms: _232  and  _233
REMARK   88  A    between atoms: _236  and  _238
REMARK   89  A    between atoms: _238  and  _239
REMARK   90  A    between atoms: _238  and  _241
REMARK   91  A    between atoms: _241  and  _242
REMARK   92  A    between atoms: _245  and  _247
REMARK   93  A    between atoms: _247  and  _248
REMARK   94  A    between atoms: _247  and  _250
REMARK   95  A    between atoms: _250  and  _251
REMARK   96  A    between atoms: _251  and  _252
REMARK   97  A    between atoms: _257  and  _259
REMARK   98  A    between atoms: _259  and  _260
REMARK   99  A    between atoms: _259  and  _262
REMARK  100  A    between atoms: _262  and  _263
REMARK  101  A    between atoms: _263  and  _264
REMARK  102  A    between atoms: _264  and  _265
REMARK  103  A    between atoms: _274  and  _276
REMARK  104  A    between atoms: _276  and  _277
REMARK  105  A    between atoms: _276  and  _279
REMARK  106  A    between atoms: _279  and  _280
REMARK  107  A    between atoms: _280  and  _281
REMARK  108  A    between atoms: _284  and  _286
REMARK  109  A    between atoms: _286  and  _287
REMARK  110  A    between atoms: _286  and  _289
REMARK  111  A    between atoms: _289  and  _290
REMARK  112  A    between atoms: _293  and  _295
REMARK  113  A    between atoms: _295  and  _296
REMARK  114  A    between atoms: _295  and  _298
REMARK  115  A    between atoms: _298  and  _299
REMARK  116  A    between atoms: _299  and  _300
REMARK  117  A    between atoms: _300  and  _301
REMARK  118  A    between atoms: _310  and  _312
REMARK  119  A    between atoms: _312  and  _313
REMARK  120  A    between atoms: _312  and  _315
REMARK  121  A    between atoms: _315  and  _316
REMARK  122  A    between atoms: _316  and  _317
REMARK  123  A    between atoms: _317  and  _318
REMARK  124  A    between atoms: _318  and  _319
REMARK  125  A    between atoms: _323  and  _325
REMARK  126  A    between atoms: _325  and  _326
REMARK  127  A    between atoms: _329  and  _331
REMARK  128  A    between atoms: _331  and  _332
REMARK  129  A    between atoms: _331  and  _334
REMARK  130  A    between atoms: _334  and  _335
REMARK  131  A    between atoms: _335  and  _336
REMARK  132  A    between atoms: _339  and  _341
REMARK  133  A    between atoms: _341  and  _342
REMARK  134  A    between atoms: _341  and  _344
REMARK  135  A    between atoms: _344  and  _345
REMARK  136  A    between atoms: _345  and  _346
REMARK  137  A    between atoms: _346  and  _347
REMARK  138  A    between atoms: _356  and  _358
REMARK  139  A    between atoms: _358  and  _359
REMARK  140  A    between atoms: _358  and  _361
REMARK  141  A    between atoms: _361  and  _362
REMARK  142  A    between atoms: _372  and  _374
REMARK  143  A    between atoms: _374  and  _375
REMARK  144  A    between atoms: _378  and  _379
REMARK  145  A    between atoms: _384  and  _386
REMARK  146  A    between atoms: _386  and  _387
REMARK  147  A    between atoms: _386  and  _389
REMARK  148  A    between atoms: _389  and  _390
REMARK  149  A    between atoms: _390  and  _391
REMARK  150  A    between atoms: _391  and  _392
REMARK  151  A    between atoms: _401  and  _403
REMARK  152  A    between atoms: _403  and  _404
REMARK  153  A    between atoms: _403  and  _406
REMARK  154  A    between atoms: _406  and  _407
REMARK  155  A    between atoms: _410  and  _412
REMARK  156  A    between atoms: _412  and  _413
REMARK  157  A    between atoms: _412  and  _415
REMARK  158  A    between atoms: _415  and  _416
REMARK  159  A    between atoms: _419  and  _421
REMARK  160  A    between atoms: _421  and  _422
REMARK  161  A    between atoms: _421  and  _424
REMARK  162  A    between atoms: _424  and  _425
REMARK  163  A    between atoms: _428  and  _430
REMARK  164  A    between atoms: _430  and  _431
REMARK  165  A    between atoms: _430  and  _433
REMARK  166  A    between atoms: _433  and  _434
REMARK  167  A    between atoms: _437  and  _439
REMARK  168  A    between atoms: _439  and  _440
REMARK  169  A    between atoms: _439  and  _442
REMARK  170  A    between atoms: _442  and  _443
REMARK  171  A    between atoms: _446  and  _448
REMARK  172  A    between atoms: _448  and  _449
REMARK  173  A    between atoms: _448  and  _451
REMARK  174  A    between atoms: _451  and  _452
REMARK  175  A    between atoms: _452  and  _453
REMARK  176  A    between atoms: _455  and  _457
REMARK  177  A    between atoms: _457  and  _458
REMARK  178  A    between atoms: _457  and  _460
REMARK  179  A    between atoms: _460  and  _461
REMARK  180  A    between atoms: _464  and  _466
REMARK  181  A    between atoms: _466  and  _467
REMARK  182  A    between atoms: _466  and  _469
REMARK  183  A    between atoms: _469  and  _470
REMARK  184  A    between atoms: _476  and  _478
REMARK  185  A    between atoms: _478  and  _479
REMARK  186  A    between atoms: _478  and  _481
REMARK  187  A    between atoms: _481  and  _482
REMARK  188  A    between atoms: _485  and  _487
REMARK  189  A    between atoms: _487  and  _488
REMARK  190  A    between atoms: _487  and  _490
REMARK  191  A    between atoms: _490  and  _491
REMARK  192  A    between atoms: _494  and  _496
REMARK  193  A    between atoms: _496  and  _497
REMARK  194  A    between atoms: _496  and  _499
REMARK  195  A    between atoms: _499  and  _500
REMARK  196  A    between atoms: _500  and  _501
REMARK  197  A    between atoms: _504  and  _506
REMARK  198  A    between atoms: _506  and  _507
REMARK  199  A    between atoms: _506  and  _509
REMARK  200  A    between atoms: _509  and  _510
REMARK  201  A    between atoms: _510  and  _511
REMARK  202  A    between atoms: _511  and  _512
REMARK  203  A    between atoms: _521  and  _523
REMARK  204  A    between atoms: _523  and  _524
REMARK  205  A    between atoms: _523  and  _526
REMARK  206  A    between atoms: _526  and  _527
REMARK  207  A    between atoms: _530  and  _532
REMARK  208  A    between atoms: _532  and  _533
REMARK  209  A    between atoms: _532  and  _535
REMARK  210  A    between atoms: _535  and  _536
REMARK  211  A    between atoms: _539  and  _541
REMARK  212  A    between atoms: _541  and  _542
REMARK  213  A    between atoms: _541  and  _544
REMARK  214  A    between atoms: _548  and  _549
REMARK  215  A    between atoms: _554  and  _556
REMARK  216  A    between atoms: _556  and  _557
REMARK  217  A    between atoms: _556  and  _559
REMARK  218  A    between atoms: _559  and  _560
REMARK  219  A    between atoms: _565  and  _567
REMARK  220  A    between atoms: _567  and  _568
REMARK  221  A    between atoms: _567  and  _570
REMARK  222  A    between atoms: _570  and  _571
REMARK  223  A    between atoms: _576  and  _577
REMARK  224  A    between atoms: _579  and  _581
REMARK  225  A    between atoms: _581  and  _582
REMARK  226  A    between atoms: _581  and  _584
REMARK  227  A    between atoms: _584  and  _585
REMARK  228  A    between atoms: _588  and  _590
REMARK  229  A    between atoms: _590  and  _591
REMARK  230  A    between atoms: _590  and  _593
REMARK  231  A    between atoms: _593  and  _594
REMARK  232  A    between atoms: _594  and  _595
REMARK  233  A    between atoms: _595  and  _596
REMARK  234  A    between atoms: _605  and  _607
REMARK  235  A    between atoms: _607  and  _608
REMARK  236  A    between atoms: _610  and  _612
REMARK  237  A    between atoms: _612  and  _613
REMARK  238  A    between atoms: _612  and  _615
REMARK  239  A    between atoms: _615  and  _616
REMARK  240  A    between atoms: _622  and  _624
REMARK  241  A    between atoms: _624  and  _625
REMARK  242  A    between atoms: _624  and  _627
REMARK  243  A    between atoms: _627  and  _628
REMARK  244  A    between atoms: _628  and  _629
REMARK  245  A    between atoms: _631  and  _633
REMARK  246  A    between atoms: _633  and  _634
REMARK  247  A    between atoms: _633  and  _636
REMARK  248  A    between atoms: _636  and  _637
REMARK                            x       y       z     vdW  Elec       q    Type
REMARK                         _______ _______ _______ _____ _____    ______ ____
ROOT
ATOM      1  O   HOH     1      11.801  20.739   4.117  0.00  0.00    +0.000 OA
ENDROOT
TORSDOF 0
REMARK  Name = ../refined-set-2016/4f7v/4f7v_pocket.pdb
REMARK  248 active torsions:
REMARK  status: ('A' for Active; 'I' for Inactive)
REMARK    1  A    between atoms: _1  and  _3
REMARK    2  A    between atoms: _3  and  _4
REMARK    3  A    between atoms: _3  and  _6
REMARK    4  A    between atoms: _6  and  _7
REMARK    5  A    between atoms: _12  and  _13
REMARK    6  A    between atoms: _15  and  _17
REMARK    7  A    between atoms: _17  and  _18
REMARK    8  A    between atoms: _17  and  _20
REMARK    9  A    between atoms: _20  and  _21
REMARK   10  A    between atoms: _24  and  _26
REMARK   11  A    between atoms: _26  and  _27
REMARK   12  A    between atoms: _30  and  _32
REMARK   13  A    between atoms: _32  and  _33
REMARK   14  A    between atoms: _32  and  _35
REMARK   15  A    between atoms: _35  and  _36
REMARK   16  A    between atoms: _39  and  _41
REMARK   17  A    between atoms: _41  and  _42
REMARK   18  A    between atoms: _44  and  _46
REMARK   19  A    between atoms: _46  and  _47
REMARK   20  A    between atoms: _46  and  _49
REMARK   21  A    between atoms: _49  and  _50
REMARK   22  A    between atoms: _52  and  _54
REMARK   23  A    between atoms: _54  and  _55
REMARK   24  A    between atoms: _54  and  _57
REMARK   25  A    between atoms: _57  and  _58
REMARK   26  A    between atoms: _63  and  _65
REMARK   27  A    between atoms: _65  and  _66
REMARK   28  A    between atoms: _65  and  _68
REMARK   29  A    between atoms: _68  and  _69
REMARK   30  A    between atoms: _74  and  _75
REMARK   31  A    between atoms: _77  and  _79
REMARK   32  A    between atoms: _79  and  _80
REMARK   33  A    between atoms: _79  and  _82
REMARK   34  A    between atoms: _82  and  _83
REMARK   35  A    between atoms: _83  and  _84
REMARK   36  A    between atoms: _84  and  _85
REMARK   37  A    between atoms: _94  and  _96
REMARK   38  A    between atoms: _96  and  _97
REMARK   39  A    between atoms: _96  and  _99
REMARK   40  A    between atoms: _99  and  _100
REMARK   41  A    between atoms: _104  and  _105
REMARK   42  A    between atoms: _111  and  _112
REMARK   43  A    between atoms: _117  and  _119
REMARK   44  A    between atoms: _119  and  _120
REMARK   45  A    between atoms: _119  and  _122
REMARK   46  A    between atoms: _122  and  _123
REMARK   47  A    between atoms: _126  and  _128
REMARK   48  A    between atoms: _128  and  _129
REMARK   49  A    between atoms: _132  and  _133
REMARK   50  A    between atoms: _138  and  _140
REMARK   51  A    between atoms: _140  and  _141
REMARK   52  A    between atoms: _140  and  _143
REMARK   53  A    between atoms: _143  and  _144
REMARK   54  A    between atoms: _144  and  _145
REMARK   55  A    between atoms: _150  and  _152
REMARK   56  A    between atoms: _152  and  _153
REMARK   57  A    between atoms: _152  and  _155
REMARK   58  A    between atoms: _155  and  _156
REMARK   59  A    between atoms: _156  and  _157
REMARK   60  A    between atoms: _163  and  _164
REMARK   61  A    between atoms: _169  and  _171
REMARK   62  A    between atoms: _171  and  _172
REMARK   63  A    between atoms: _171  and  _174
REMARK   64  A    between atoms: _174  and  _175
REMARK   65  A    between atoms: _178  and  _180
REMARK   66  A    between atoms: _180  and  _181
REMARK   67  A    between atoms: _180  and  _183
REMARK   68  A    between atoms: _183  and  _184
REMARK   69  A    between atoms: _189  and  _190
REMARK   70  A    between atoms: _192  and  _194
REMARK   71  A    between atoms: _194  and  _195
REMARK   72  A    between atoms: _194  and  _197
REMARK   73  A    between atoms: _197  and  _198
REMARK   74  A    between atoms: _201  and  _203
REMARK   75  A    between atoms: _203  and  _204
REMARK   76  A    between atoms: _203  and  _206
REMARK   77  A    between atoms: _206  and  _207
REMARK   78  A    between atoms: _212  and  _214
REMARK   79  A    between atoms: _214  and  _215
REMARK   80  A    between atoms: _218  and  _220
REMARK   81  A    between atoms: _220  and  _221
REMARK   82  A    between atoms: _220  and  _223
REMARK   83  A    between atoms: _223  and  _224
REMARK   84  A    between atoms: _227  and  _229
REMARK   85  A    between atoms: _229  and  _230
REMARK   86  A    between atoms: _229  and  _232
REMARK   87  A    between atoms: _232  and  _233
REMARK   88  A    between atoms: _236  and  _238
REMARK   89  A    between atoms: _238  and  _239
REMARK   90  A    between atoms: _238  and  _241
REMARK   91  A    between atoms: _241  and  _242
REMARK   92  A    between atoms: _245  and  _247
REMARK   93  A    between atoms: _247  and  _248
REMARK   94  A    between atoms: _247  and  _250
REMARK   95  A    between atoms: _250  and  _251
REMARK   96  A    between atoms: _251  and  _252
REMARK   97  A    between atoms: _257  and  _259
REMARK   98  A    between atoms: _259  and  _260
REMARK   99  A    between atoms: _259  and  _262
REMARK  100  A    between atoms: _262  and  _263
REMARK  101  A    between atoms: _263  and  _264
REMARK  102  A    between atoms: _264  and  _265
REMARK  103  A    between atoms: _274  and  _276
REMARK  104  A    between atoms: _276  and  _277
REMARK  105  A    between atoms: _276  and  _279
REMARK  106  A    between atoms: _279  and  _280
REMARK  107  A    between atoms: _280  and  _281
REMARK  108  A    between atoms: _284  and  _286
REMARK  109  A    between atoms: _286  and  _287
REMARK  110  A    between atoms: _286  and  _289
REMARK  111  A    between atoms: _289  and  _290
REMARK  112  A    between atoms: _293  and  _295
REMARK  113  A    between atoms: _295  and  _296
REMARK  114  A    between atoms: _295  and  _298
REMARK  115  A    between atoms: _298  and  _299
REMARK  116  A    between atoms: _299  and  _300
REMARK  117  A    between atoms: _300  and  _301
REMARK  118  A    between atoms: _310  and  _312
REMARK  119  A    between atoms: _312  and  _313
REMARK  120  A    between atoms: _312  and  _315
REMARK  121  A    between atoms: _315  and  _316
REMARK  122  A    between atoms: _316  and  _317
REMARK  123  A    between atoms: _317  and  _318
REMARK  124  A    between atoms: _318  and  _319
REMARK  125  A    between atoms: _323  and  _325
REMARK  126  A    between atoms: _325  and  _326
REMARK  127  A    between atoms: _329  and  _331
REMARK  128  A    between atoms: _331  and  _332
REMARK  129  A    between atoms: _331  and  _334
REMARK  130  A    between atoms: _334  and  _335
REMARK  131  A    between atoms: _335  and  _336
REMARK  132  A    between atoms: _339  and  _341
REMARK  133  A    between atoms: _341  and  _342
REMARK  134  A    between atoms: _341  and  _344
REMARK  135  A    between atoms: _344  and  _345
REMARK  136  A    between atoms: _345  and  _346
REMARK  137  A    between atoms: _346  and  _347
REMARK  138  A    between atoms: _356  and  _358
REMARK  139  A    between atoms: _358  and  _359
REMARK  140  A    between atoms: _358  and  _361
REMARK  141  A    between atoms: _361  and  _362
REMARK  142  A    between atoms: _372  and  _374
REMARK  143  A    between atoms: _374  and  _375
REMARK  144  A    between atoms: _378  and  _379
REMARK  145  A    between atoms: _384  and  _386
REMARK  146  A    between atoms: _386  and  _387
REMARK  147  A    between atoms: _386  and  _389
REMARK  148  A    between atoms: _389  and  _390
REMARK  149  A    between atoms: _390  and  _391
REMARK  150  A    between atoms: _391  and  _392
REMARK  151  A    between atoms: _401  and  _403
REMARK  152  A    between atoms: _403  and  _404
REMARK  153  A    between atoms: _403  and  _406
REMARK  154  A    between atoms: _406  and  _407
REMARK  155  A    between atoms: _410  and  _412
REMARK  156  A    between atoms: _412  and  _413
REMARK  157  A    between atoms: _412  and  _415
REMARK  158  A    between atoms: _415  and  _416
REMARK  159  A    between atoms: _419  and  _421
REMARK  160  A    between atoms: _421  and  _422
REMARK  161  A    between atoms: _421  and  _424
REMARK  162  A    between atoms: _424  and  _425
REMARK  163  A    between atoms: _428  and  _430
REMARK  164  A    between atoms: _430  and  _431
REMARK  165  A    between atoms: _430  and  _433
REMARK  166  A    between atoms: _433  and  _434
REMARK  167  A    between atoms: _437  and  _439
REMARK  168  A    between atoms: _439  and  _440
REMARK  169  A    between atoms: _439  and  _442
REMARK  170  A    between atoms: _442  and  _443
REMARK  171  A    between atoms: _446  and  _448
REMARK  172  A    between atoms: _448  and  _449
REMARK  173  A    between atoms: _448  and  _451
REMARK  174  A    between atoms: _451  and  _452
REMARK  175  A    between atoms: _452  and  _453
REMARK  176  A    between atoms: _455  and  _457
REMARK  177  A    between atoms: _457  and  _458
REMARK  178  A    between atoms: _457  and  _460
REMARK  179  A    between atoms: _460  and  _461
REMARK  180  A    between atoms: _464  and  _466
REMARK  181  A    between atoms: _466  and  _467
REMARK  182  A    between atoms: _466  and  _469
REMARK  183  A    between atoms: _469  and  _470
REMARK  184  A    between atoms: _476  and  _478
REMARK  185  A    between atoms: _478  and  _479
REMARK  186  A    between atoms: _478  and  _481
REMARK  187  A    between atoms: _481  and  _482
REMARK  188  A    between atoms: _485  and  _487
REMARK  189  A    between atoms: _487  and  _488
REMARK  190  A    between atoms: _487  and  _490
REMARK  191  A    between atoms: _490  and  _491
REMARK  192  A    between atoms: _494  and  _496
REMARK  193  A    between atoms: _496  and  _497
REMARK  194  A    between atoms: _496  and  _499
REMARK  195  A    between atoms: _499  and  _500
REMARK  196  A    between atoms: _500  and  _501
REMARK  197  A    between atoms: _504  and  _506
REMARK  198  A    between atoms: _506  and  _507
REMARK  199  A    between atoms: _506  and  _509
REMARK  200  A    between atoms: _509  and  _510
REMARK  201  A    between atoms: _510  and  _511
REMARK  202  A    between atoms: _511  and  _512
REMARK  203  A    between atoms: _521  and  _523
REMARK  204  A    between atoms: _523  and  _524
REMARK  205  A    between atoms: _523  and  _526
REMARK  206  A    between atoms: _526  and  _527
REMARK  207  A    between atoms: _530  and  _532
REMARK  208  A    between atoms: _532  and  _533
REMARK  209  A    between atoms: _532  and  _535
REMARK  210  A    between atoms: _535  and  _536
REMARK  211  A    between atoms: _539  and  _541
REMARK  212  A    between atoms: _541  and  _542
REMARK  213  A    between atoms: _541  and  _544
REMARK  214  A    between atoms: _548  and  _549
REMARK  215  A    between atoms: _554  and  _556
REMARK  216  A    between atoms: _556  and  _557
REMARK  217  A    between atoms: _556  and  _559
REMARK  218  A    between atoms: _559  and  _560
REMARK  219  A    between atoms: _565  and  _567
REMARK  220  A    between atoms: _567  and  _568
REMARK  221  A    between atoms: _567  and  _570
REMARK  222  A    between atoms: _570  and  _571
REMARK  223  A    between atoms: _576  and  _577
REMARK  224  A    between atoms: _579  and  _581
REMARK  225  A    between atoms: _581  and  _582
REMARK  226  A    between atoms: _581  and  _584
REMARK  227  A    between atoms: _584  and  _585
REMARK  228  A    between atoms: _588  and  _590
REMARK  229  A    between atoms: _590  and  _591
REMARK  230  A    between atoms: _590  and  _593
REMARK  231  A    between atoms: _593  and  _594
REMARK  232  A    between atoms: _594  and  _595
REMARK  233  A    between atoms: _595  and  _596
REMARK  234  A    between atoms: _605  and  _607
REMARK  235  A    between atoms: _607  and  _608
REMARK  236  A    between atoms: _610  and  _612
REMARK  237  A    between atoms: _612  and  _613
REMARK  238  A    between atoms: _612  and  _615
REMARK  239  A    between atoms: _615  and  _616
REMARK  240  A    between atoms: _622  and  _624
REMARK  241  A    between atoms: _624  and  _625
REMARK  242  A    between atoms: _624  and  _627
REMARK  243  A    between atoms: _627  and  _628
REMARK  244  A    between atoms: _628  and  _629
REMARK  245  A    between atoms: _631  and  _633
REMARK  246  A    between atoms: _633  and  _634
REMARK  247  A    between atoms: _633  and  _636
REMARK  248  A    between atoms: _636  and  _637
REMARK                            x       y       z     vdW  Elec       q    Type
REMARK                         _______ _______ _______ _____ _____    ______ ____
ROOT
ATOM      1  O   HOH     1      13.481  29.681  -2.304  0.00  0.00    +0.000 OA
ENDROOT
TORSDOF 0
REMARK  Name = ../refined-set-2016/4f7v/4f7v_pocket.pdb
REMARK  248 active torsions:
REMARK  status: ('A' for Active; 'I' for Inactive)
REMARK    1  A    between atoms: _1  and  _3
REMARK    2  A    between atoms: _3  and  _4
REMARK    3  A    between atoms: _3  and  _6
REMARK    4  A    between atoms: _6  and  _7
REMARK    5  A    between atoms: _12  and  _13
REMARK    6  A    between atoms: _15  and  _17
REMARK    7  A    between atoms: _17  and  _18
REMARK    8  A    between atoms: _17  and  _20
REMARK    9  A    between atoms: _20  and  _21
REMARK   10  A    between atoms: _24  and  _26
REMARK   11  A    between atoms: _26  and  _27
REMARK   12  A    between atoms: _30  and  _32
REMARK   13  A    between atoms: _32  and  _33
REMARK   14  A    between atoms: _32  and  _35
REMARK   15  A    between atoms: _35  and  _36
REMARK   16  A    between atoms: _39  and  _41
REMARK   17  A    between atoms: _41  and  _42
REMARK   18  A    between atoms: _44  and  _46
REMARK   19  A    between atoms: _46  and  _47
REMARK   20  A    between atoms: _46  and  _49
REMARK   21  A    between atoms: _49  and  _50
REMARK   22  A    between atoms: _52  and  _54
REMARK   23  A    between atoms: _54  and  _55
REMARK   24  A    between atoms: _54  and  _57
REMARK   25  A    between atoms: _57  and  _58
REMARK   26  A    between atoms: _63  and  _65
REMARK   27  A    between atoms: _65  and  _66
REMARK   28  A    between atoms: _65  and  _68
REMARK   29  A    between atoms: _68  and  _69
REMARK   30  A    between atoms: _74  and  _75
REMARK   31  A    between atoms: _77  and  _79
REMARK   32  A    between atoms: _79  and  _80
REMARK   33  A    between atoms: _79  and  _82
REMARK   34  A    between atoms: _82  and  _83
REMARK   35  A    between atoms: _83  and  _84
REMARK   36  A    between atoms: _84  and  _85
REMARK   37  A    between atoms: _94  and  _96
REMARK   38  A    between atoms: _96  and  _97
REMARK   39  A    between atoms: _96  and  _99
REMARK   40  A    between atoms: _99  and  _100
REMARK   41  A    between atoms: _104  and  _105
REMARK   42  A    between atoms: _111  and  _112
REMARK   43  A    between atoms: _117  and  _119
REMARK   44  A    between atoms: _119  and  _120
REMARK   45  A    between atoms: _119  and  _122
REMARK   46  A    between atoms: _122  and  _123
REMARK   47  A    between atoms: _126  and  _128
REMARK   48  A    between atoms: _128  and  _129
REMARK   49  A    between atoms: _132  and  _133
REMARK   50  A    between atoms: _138  and  _140
REMARK   51  A    between atoms: _140  and  _141
REMARK   52  A    between atoms: _140  and  _143
REMARK   53  A    between atoms: _143  and  _144
REMARK   54  A    between atoms: _144  and  _145
REMARK   55  A    between atoms: _150  and  _152
REMARK   56  A    between atoms: _152  and  _153
REMARK   57  A    between atoms: _152  and  _155
REMARK   58  A    between atoms: _155  and  _156
REMARK   59  A    between atoms: _156  and  _157
REMARK   60  A    between atoms: _163  and  _164
REMARK   61  A    between atoms: _169  and  _171
REMARK   62  A    between atoms: _171  and  _172
REMARK   63  A    between atoms: _171  and  _174
REMARK   64  A    between atoms: _174  and  _175
REMARK   65  A    between atoms: _178  and  _180
REMARK   66  A    between atoms: _180  and  _181
REMARK   67  A    between atoms: _180  and  _183
REMARK   68  A    between atoms: _183  and  _184
REMARK   69  A    between atoms: _189  and  _190
REMARK   70  A    between atoms: _192  and  _194
REMARK   71  A    between atoms: _194  and  _195
REMARK   72  A    between atoms: _194  and  _197
REMARK   73  A    between atoms: _197  and  _198
REMARK   74  A    between atoms: _201  and  _203
REMARK   75  A    between atoms: _203  and  _204
REMARK   76  A    between atoms: _203  and  _206
REMARK   77  A    between atoms: _206  and  _207
REMARK   78  A    between atoms: _212  and  _214
REMARK   79  A    between atoms: _214  and  _215
REMARK   80  A    between atoms: _218  and  _220
REMARK   81  A    between atoms: _220  and  _221
REMARK   82  A    between atoms: _220  and  _223
REMARK   83  A    between atoms: _223  and  _224
REMARK   84  A    between atoms: _227  and  _229
REMARK   85  A    between atoms: _229  and  _230
REMARK   86  A    between atoms: _229  and  _232
REMARK   87  A    between atoms: _232  and  _233
REMARK   88  A    between atoms: _236  and  _238
REMARK   89  A    between atoms: _238  and  _239
REMARK   90  A    between atoms: _238  and  _241
REMARK   91  A    between atoms: _241  and  _242
REMARK   92  A    between atoms: _245  and  _247
REMARK   93  A    between atoms: _247  and  _248
REMARK   94  A    between atoms: _247  and  _250
REMARK   95  A    between atoms: _250  and  _251
REMARK   96  A    between atoms: _251  and  _252
REMARK   97  A    between atoms: _257  and  _259
REMARK   98  A    between atoms: _259  and  _260
REMARK   99  A    between atoms: _259  and  _262
REMARK  100  A    between atoms: _262  and  _263
REMARK  101  A    between atoms: _263  and  _264
REMARK  102  A    between atoms: _264  and  _265
REMARK  103  A    between atoms: _274  and  _276
REMARK  104  A    between atoms: _276  and  _277
REMARK  105  A    between atoms: _276  and  _279
REMARK  106  A    between atoms: _279  and  _280
REMARK  107  A    between atoms: _280  and  _281
REMARK  108  A    between atoms: _284  and  _286
REMARK  109  A    between atoms: _286  and  _287
REMARK  110  A    between atoms: _286  and  _289
REMARK  111  A    between atoms: _289  and  _290
REMARK  112  A    between atoms: _293  and  _295
REMARK  113  A    between atoms: _295  and  _296
REMARK  114  A    between atoms: _295  and  _298
REMARK  115  A    between atoms: _298  and  _299
REMARK  116  A    between atoms: _299  and  _300
REMARK  117  A    between atoms: _300  and  _301
REMARK  118  A    between atoms: _310  and  _312
REMARK  119  A    between atoms: _312  and  _313
REMARK  120  A    between atoms: _312  and  _315
REMARK  121  A    between atoms: _315  and  _316
REMARK  122  A    between atoms: _316  and  _317
REMARK  123  A    between atoms: _317  and  _318
REMARK  124  A    between atoms: _318  and  _319
REMARK  125  A    between atoms: _323  and  _325
REMARK  126  A    between atoms: _325  and  _326
REMARK  127  A    between atoms: _329  and  _331
REMARK  128  A    between atoms: _331  and  _332
REMARK  129  A    between atoms: _331  and  _334
REMARK  130  A    between atoms: _334  and  _335
REMARK  131  A    between atoms: _335  and  _336
REMARK  132  A    between atoms: _339  and  _341
REMARK  133  A    between atoms: _341  and  _342
REMARK  134  A    between atoms: _341  and  _344
REMARK  135  A    between atoms: _344  and  _345
REMARK  136  A    between atoms: _345  and  _346
REMARK  137  A    between atoms: _346  and  _347
REMARK  138  A    between atoms: _356  and  _358
REMARK  139  A    between atoms: _358  and  _359
REMARK  140  A    between atoms: _358  and  _361
REMARK  141  A    between atoms: _361  and  _362
REMARK  142  A    between atoms: _372  and  _374
REMARK  143  A    between atoms: _374  and  _375
REMARK  144  A    between atoms: _378  and  _379
REMARK  145  A    between atoms: _384  and  _386
REMARK  146  A    between atoms: _386  and  _387
REMARK  147  A    between atoms: _386  and  _389
REMARK  148  A    between atoms: _389  and  _390
REMARK  149  A    between atoms: _390  and  _391
REMARK  150  A    between atoms: _391  and  _392
REMARK  151  A    between atoms: _401  and  _403
REMARK  152  A    between atoms: _403  and  _404
REMARK  153  A    between atoms: _403  and  _406
REMARK  154  A    between atoms: _406  and  _407
REMARK  155  A    between atoms: _410  and  _412
REMARK  156  A    between atoms: _412  and  _413
REMARK  157  A    between atoms: _412  and  _415
REMARK  158  A    between atoms: _415  and  _416
REMARK  159  A    between atoms: _419  and  _421
REMARK  160  A    between atoms: _421  and  _422
REMARK  161  A    between atoms: _421  and  _424
REMARK  162  A    between atoms: _424  and  _425
REMARK  163  A    between atoms: _428  and  _430
REMARK  164  A    between atoms: _430  and  _431
REMARK  165  A    between atoms: _430  and  _433
REMARK  166  A    between atoms: _433  and  _434
REMARK  167  A    between atoms: _437  and  _439
REMARK  168  A    between atoms: _439  and  _440
REMARK  169  A    between atoms: _439  and  _442
REMARK  170  A    between atoms: _442  and  _443
REMARK  171  A    between atoms: _446  and  _448
REMARK  172  A    between atoms: _448  and  _449
REMARK  173  A    between atoms: _448  and  _451
REMARK  174  A    between atoms: _451  and  _452
REMARK  175  A    between atoms: _452  and  _453
REMARK  176  A    between atoms: _455  and  _457
REMARK  177  A    between atoms: _457  and  _458
REMARK  178  A    between atoms: _457  and  _460
REMARK  179  A    between atoms: _460  and  _461
REMARK  180  A    between atoms: _464  and  _466
REMARK  181  A    between atoms: _466  and  _467
REMARK  182  A    between atoms: _466  and  _469
REMARK  183  A    between atoms: _469  and  _470
REMARK  184  A    between atoms: _476  and  _478
REMARK  185  A    between atoms: _478  and  _479
REMARK  186  A    between atoms: _478  and  _481
REMARK  187  A    between atoms: _481  and  _482
REMARK  188  A    between atoms: _485  and  _487
REMARK  189  A    between atoms: _487  and  _488
REMARK  190  A    between atoms: _487  and  _490
REMARK  191  A    between atoms: _490  and  _491
REMARK  192  A    between atoms: _494  and  _496
REMARK  193  A    between atoms: _496  and  _497
REMARK  194  A    between atoms: _496  and  _499
REMARK  195  A    between atoms: _499  and  _500
REMARK  196  A    between atoms: _500  and  _501
REMARK  197  A    between atoms: _504  and  _506
REMARK  198  A    between atoms: _506  and  _507
REMARK  199  A    between atoms: _506  and  _509
REMARK  200  A    between atoms: _509  and  _510
REMARK  201  A    between atoms: _510  and  _511
REMARK  202  A    between atoms: _511  and  _512
REMARK  203  A    between atoms: _521  and  _523
REMARK  204  A    between atoms: _523  and  _524
REMARK  205  A    between atoms: _523  and  _526
REMARK  206  A    between atoms: _526  and  _527
REMARK  207  A    between atoms: _530  and  _532
REMARK  208  A    between atoms: _532  and  _533
REMARK  209  A    between atoms: _532  and  _535
REMARK  210  A    between atoms: _535  and  _536
REMARK  211  A    between atoms: _539  and  _541
REMARK  212  A    between atoms: _541  and  _542
REMARK  213  A    between atoms: _541  and  _544
REMARK  214  A    between atoms: _548  and  _549
REMARK  215  A    between atoms: _554  and  _556
REMARK  216  A    between atoms: _556  and  _557
REMARK  217  A    between atoms: _556  and  _559
REMARK  218  A    between atoms: _559  and  _560
REMARK  219  A    between atoms: _565  and  _567
REMARK  220  A    between atoms: _567  and  _568
REMARK  221  A    between atoms: _567  and  _570
REMARK  222  A    between atoms: _570  and  _571
REMARK  223  A    between atoms: _576  and  _577
REMARK  224  A    between atoms: _579  and  _581
REMARK  225  A    between atoms: _581  and  _582
REMARK  226  A    between atoms: _581  and  _584
REMARK  227  A    between atoms: _584  and  _585
REMARK  228  A    between atoms: _588  and  _590
REMARK  229  A    between atoms: _590  and  _591
REMARK  230  A    between atoms: _590  and  _593
REMARK  231  A    between atoms: _593  and  _594
REMARK  232  A    between atoms: _594  and  _595
REMARK  233  A    between atoms: _595  and  _596
REMARK  234  A    between atoms: _605  and  _607
REMARK  235  A    between atoms: _607  and  _608
REMARK  236  A    between atoms: _610  and  _612
REMARK  237  A    between atoms: _612  and  _613
REMARK  238  A    between atoms: _612  and  _615
REMARK  239  A    between atoms: _615  and  _616
REMARK  240  A    between atoms: _622  and  _624
REMARK  241  A    between atoms: _624  and  _625
REMARK  242  A    between atoms: _624  and  _627
REMARK  243  A    between atoms: _627  and  _628
REMARK  244  A    between atoms: _628  and  _629
REMARK  245  A    between atoms: _631  and  _633
REMARK  246  A    between atoms: _633  and  _634
REMARK  247  A    between atoms: _633  and  _636
REMARK  248  A    between atoms: _636  and  _637
REMARK                            x       y       z     vdW  Elec       q    Type
REMARK                         _______ _______ _______ _____ _____    ______ ____
ROOT
ATOM      1  O   HOH     1       9.752  21.343   6.268  0.00  0.00    +0.000 OA
ENDROOT
TORSDOF 0
REMARK  Name = ../refined-set-2016/4f7v/4f7v_pocket.pdb
REMARK  248 active torsions:
REMARK  status: ('A' for Active; 'I' for Inactive)
REMARK    1  A    between atoms: _1  and  _3
REMARK    2  A    between atoms: _3  and  _4
REMARK    3  A    between atoms: _3  and  _6
REMARK    4  A    between atoms: _6  and  _7
REMARK    5  A    between atoms: _12  and  _13
REMARK    6  A    between atoms: _15  and  _17
REMARK    7  A    between atoms: _17  and  _18
REMARK    8  A    between atoms: _17  and  _20
REMARK    9  A    between atoms: _20  and  _21
REMARK   10  A    between atoms: _24  and  _26
REMARK   11  A    between atoms: _26  and  _27
REMARK   12  A    between atoms: _30  and  _32
REMARK   13  A    between atoms: _32  and  _33
REMARK   14  A    between atoms: _32  and  _35
REMARK   15  A    between atoms: _35  and  _36
REMARK   16  A    between atoms: _39  and  _41
REMARK   17  A    between atoms: _41  and  _42
REMARK   18  A    between atoms: _44  and  _46
REMARK   19  A    between atoms: _46  and  _47
REMARK   20  A    between atoms: _46  and  _49
REMARK   21  A    between atoms: _49  and  _50
REMARK   22  A    between atoms: _52  and  _54
REMARK   23  A    between atoms: _54  and  _55
REMARK   24  A    between atoms: _54  and  _57
REMARK   25  A    between atoms: _57  and  _58
REMARK   26  A    between atoms: _63  and  _65
REMARK   27  A    between atoms: _65  and  _66
REMARK   28  A    between atoms: _65  and  _68
REMARK   29  A    between atoms: _68  and  _69
REMARK   30  A    between atoms: _74  and  _75
REMARK   31  A    between atoms: _77  and  _79
REMARK   32  A    between atoms: _79  and  _80
REMARK   33  A    between atoms: _79  and  _82
REMARK   34  A    between atoms: _82  and  _83
REMARK   35  A    between atoms: _83  and  _84
REMARK   36  A    between atoms: _84  and  _85
REMARK   37  A    between atoms: _94  and  _96
REMARK   38  A    between atoms: _96  and  _97
REMARK   39  A    between atoms: _96  and  _99
REMARK   40  A    between atoms: _99  and  _100
REMARK   41  A    between atoms: _104  and  _105
REMARK   42  A    between atoms: _111  and  _112
REMARK   43  A    between atoms: _117  and  _119
REMARK   44  A    between atoms: _119  and  _120
REMARK   45  A    between atoms: _119  and  _122
REMARK   46  A    between atoms: _122  and  _123
REMARK   47  A    between atoms: _126  and  _128
REMARK   48  A    between atoms: _128  and  _129
REMARK   49  A    between atoms: _132  and  _133
REMARK   50  A    between atoms: _138  and  _140
REMARK   51  A    between atoms: _140  and  _141
REMARK   52  A    between atoms: _140  and  _143
REMARK   53  A    between atoms: _143  and  _144
REMARK   54  A    between atoms: _144  and  _145
REMARK   55  A    between atoms: _150  and  _152
REMARK   56  A    between atoms: _152  and  _153
REMARK   57  A    between atoms: _152  and  _155
REMARK   58  A    between atoms: _155  and  _156
REMARK   59  A    between atoms: _156  and  _157
REMARK   60  A    between atoms: _163  and  _164
REMARK   61  A    between atoms: _169  and  _171
REMARK   62  A    between atoms: _171  and  _172
REMARK   63  A    between atoms: _171  and  _174
REMARK   64  A    between atoms: _174  and  _175
REMARK   65  A    between atoms: _178  and  _180
REMARK   66  A    between atoms: _180  and  _181
REMARK   67  A    between atoms: _180  and  _183
REMARK   68  A    between atoms: _183  and  _184
REMARK   69  A    between atoms: _189  and  _190
REMARK   70  A    between atoms: _192  and  _194
REMARK   71  A    between atoms: _194  and  _195
REMARK   72  A    between atoms: _194  and  _197
REMARK   73  A    between atoms: _197  and  _198
REMARK   74  A    between atoms: _201  and  _203
REMARK   75  A    between atoms: _203  and  _204
REMARK   76  A    between atoms: _203  and  _206
REMARK   77  A    between atoms: _206  and  _207
REMARK   78  A    between atoms: _212  and  _214
REMARK   79  A    between atoms: _214  and  _215
REMARK   80  A    between atoms: _218  and  _220
REMARK   81  A    between atoms: _220  and  _221
REMARK   82  A    between atoms: _220  and  _223
REMARK   83  A    between atoms: _223  and  _224
REMARK   84  A    between atoms: _227  and  _229
REMARK   85  A    between atoms: _229  and  _230
REMARK   86  A    between atoms: _229  and  _232
REMARK   87  A    between atoms: _232  and  _233
REMARK   88  A    between atoms: _236  and  _238
REMARK   89  A    between atoms: _238  and  _239
REMARK   90  A    between atoms: _238  and  _241
REMARK   91  A    between atoms: _241  and  _242
REMARK   92  A    between atoms: _245  and  _247
REMARK   93  A    between atoms: _247  and  _248
REMARK   94  A    between atoms: _247  and  _250
REMARK   95  A    between atoms: _250  and  _251
REMARK   96  A    between atoms: _251  and  _252
REMARK   97  A    between atoms: _257  and  _259
REMARK   98  A    between atoms: _259  and  _260
REMARK   99  A    between atoms: _259  and  _262
REMARK  100  A    between atoms: _262  and  _263
REMARK  101  A    between atoms: _263  and  _264
REMARK  102  A    between atoms: _264  and  _265
REMARK  103  A    between atoms: _274  and  _276
REMARK  104  A    between atoms: _276  and  _277
REMARK  105  A    between atoms: _276  and  _279
REMARK  106  A    between atoms: _279  and  _280
REMARK  107  A    between atoms: _280  and  _281
REMARK  108  A    between atoms: _284  and  _286
REMARK  109  A    between atoms: _286  and  _287
REMARK  110  A    between atoms: _286  and  _289
REMARK  111  A    between atoms: _289  and  _290
REMARK  112  A    between atoms: _293  and  _295
REMARK  113  A    between atoms: _295  and  _296
REMARK  114  A    between atoms: _295  and  _298
REMARK  115  A    between atoms: _298  and  _299
REMARK  116  A    between atoms: _299  and  _300
REMARK  117  A    between atoms: _300  and  _301
REMARK  118  A    between atoms: _310  and  _312
REMARK  119  A    between atoms: _312  and  _313
REMARK  120  A    between atoms: _312  and  _315
REMARK  121  A    between atoms: _315  and  _316
REMARK  122  A    between atoms: _316  and  _317
REMARK  123  A    between atoms: _317  and  _318
REMARK  124  A    between atoms: _318  and  _319
REMARK  125  A    between atoms: _323  and  _325
REMARK  126  A    between atoms: _325  and  _326
REMARK  127  A    between atoms: _329  and  _331
REMARK  128  A    between atoms: _331  and  _332
REMARK  129  A    between atoms: _331  and  _334
REMARK  130  A    between atoms: _334  and  _335
REMARK  131  A    between atoms: _335  and  _336
REMARK  132  A    between atoms: _339  and  _341
REMARK  133  A    between atoms: _341  and  _342
REMARK  134  A    between atoms: _341  and  _344
REMARK  135  A    between atoms: _344  and  _345
REMARK  136  A    between atoms: _345  and  _346
REMARK  137  A    between atoms: _346  and  _347
REMARK  138  A    between atoms: _356  and  _358
REMARK  139  A    between atoms: _358  and  _359
REMARK  140  A    between atoms: _358  and  _361
REMARK  141  A    between atoms: _361  and  _362
REMARK  142  A    between atoms: _372  and  _374
REMARK  143  A    between atoms: _374  and  _375
REMARK  144  A    between atoms: _378  and  _379
REMARK  145  A    between atoms: _384  and  _386
REMARK  146  A    between atoms: _386  and  _387
REMARK  147  A    between atoms: _386  and  _389
REMARK  148  A    between atoms: _389  and  _390
REMARK  149  A    between atoms: _390  and  _391
REMARK  150  A    between atoms: _391  and  _392
REMARK  151  A    between atoms: _401  and  _403
REMARK  152  A    between atoms: _403  and  _404
REMARK  153  A    between atoms: _403  and  _406
REMARK  154  A    between atoms: _406  and  _407
REMARK  155  A    between atoms: _410  and  _412
REMARK  156  A    between atoms: _412  and  _413
REMARK  157  A    between atoms: _412  and  _415
REMARK  158  A    between atoms: _415  and  _416
REMARK  159  A    between atoms: _419  and  _421
REMARK  160  A    between atoms: _421  and  _422
REMARK  161  A    between atoms: _421  and  _424
REMARK  162  A    between atoms: _424  and  _425
REMARK  163  A    between atoms: _428  and  _430
REMARK  164  A    between atoms: _430  and  _431
REMARK  165  A    between atoms: _430  and  _433
REMARK  166  A    between atoms: _433  and  _434
REMARK  167  A    between atoms: _437  and  _439
REMARK  168  A    between atoms: _439  and  _440
REMARK  169  A    between atoms: _439  and  _442
REMARK  170  A    between atoms: _442  and  _443
REMARK  171  A    between atoms: _446  and  _448
REMARK  172  A    between atoms: _448  and  _449
REMARK  173  A    between atoms: _448  and  _451
REMARK  174  A    between atoms: _451  and  _452
REMARK  175  A    between atoms: _452  and  _453
REMARK  176  A    between atoms: _455  and  _457
REMARK  177  A    between atoms: _457  and  _458
REMARK  178  A    between atoms: _457  and  _460
REMARK  179  A    between atoms: _460  and  _461
REMARK  180  A    between atoms: _464  and  _466
REMARK  181  A    between atoms: _466  and  _467
REMARK  182  A    between atoms: _466  and  _469
REMARK  183  A    between atoms: _469  and  _470
REMARK  184  A    between atoms: _476  and  _478
REMARK  185  A    between atoms: _478  and  _479
REMARK  186  A    between atoms: _478  and  _481
REMARK  187  A    between atoms: _481  and  _482
REMARK  188  A    between atoms: _485  and  _487
REMARK  189  A    between atoms: _487  and  _488
REMARK  190  A    between atoms: _487  and  _490
REMARK  191  A    between atoms: _490  and  _491
REMARK  192  A    between atoms: _494  and  _496
REMARK  193  A    between atoms: _496  and  _497
REMARK  194  A    between atoms: _496  and  _499
REMARK  195  A    between atoms: _499  and  _500
REMARK  196  A    between atoms: _500  and  _501
REMARK  197  A    between atoms: _504  and  _506
REMARK  198  A    between atoms: _506  and  _507
REMARK  199  A    between atoms: _506  and  _509
REMARK  200  A    between atoms: _509  and  _510
REMARK  201  A    between atoms: _510  and  _511
REMARK  202  A    between atoms: _511  and  _512
REMARK  203  A    between atoms: _521  and  _523
REMARK  204  A    between atoms: _523  and  _524
REMARK  205  A    between atoms: _523  and  _526
REMARK  206  A    between atoms: _526  and  _527
REMARK  207  A    between atoms: _530  and  _532
REMARK  208  A    between atoms: _532  and  _533
REMARK  209  A    between atoms: _532  and  _535
REMARK  210  A    between atoms: _535  and  _536
REMARK  211  A    between atoms: _539  and  _541
REMARK  212  A    between atoms: _541  and  _542
REMARK  213  A    between atoms: _541  and  _544
REMARK  214  A    between atoms: _548  and  _549
REMARK  215  A    between atoms: _554  and  _556
REMARK  216  A    between atoms: _556  and  _557
REMARK  217  A    between atoms: _556  and  _559
REMARK  218  A    between atoms: _559  and  _560
REMARK  219  A    between atoms: _565  and  _567
REMARK  220  A    between atoms: _567  and  _568
REMARK  221  A    between atoms: _567  and  _570
REMARK  222  A    between atoms: _570  and  _571
REMARK  223  A    between atoms: _576  and  _577
REMARK  224  A    between atoms: _579  and  _581
REMARK  225  A    between atoms: _581  and  _582
REMARK  226  A    between atoms: _581  and  _584
REMARK  227  A    between atoms: _584  and  _585
REMARK  228  A    between atoms: _588  and  _590
REMARK  229  A    between atoms: _590  and  _591
REMARK  230  A    between atoms: _590  and  _593
REMARK  231  A    between atoms: _593  and  _594
REMARK  232  A    between atoms: _594  and  _595
REMARK  233  A    between atoms: _595  and  _596
REMARK  234  A    between atoms: _605  and  _607
REMARK  235  A    between atoms: _607  and  _608
REMARK  236  A    between atoms: _610  and  _612
REMARK  237  A    between atoms: _612  and  _613
REMARK  238  A    between atoms: _612  and  _615
REMARK  239  A    between atoms: _615  and  _616
REMARK  240  A    between atoms: _622  and  _624
REMARK  241  A    between atoms: _624  and  _625
REMARK  242  A    between atoms: _624  and  _627
REMARK  243  A    between atoms: _627  and  _628
REMARK  244  A    between atoms: _628  and  _629
REMARK  245  A    between atoms: _631  and  _633
REMARK  246  A    between atoms: _633  and  _634
REMARK  247  A    between atoms: _633  and  _636
REMARK  248  A    between atoms: _636  and  _637
REMARK                            x       y       z     vdW  Elec       q    Type
REMARK                         _______ _______ _______ _____ _____    ______ ____
ROOT
ATOM      1  O   HOH     1       1.856  14.322   8.903  0.00  0.00    +0.000 OA
ENDROOT
TORSDOF 0
REMARK  Name = ../refined-set-2016/4f7v/4f7v_pocket.pdb
REMARK  248 active torsions:
REMARK  status: ('A' for Active; 'I' for Inactive)
REMARK    1  A    between atoms: _1  and  _3
REMARK    2  A    between atoms: _3  and  _4
REMARK    3  A    between atoms: _3  and  _6
REMARK    4  A    between atoms: _6  and  _7
REMARK    5  A    between atoms: _12  and  _13
REMARK    6  A    between atoms: _15  and  _17
REMARK    7  A    between atoms: _17  and  _18
REMARK    8  A    between atoms: _17  and  _20
REMARK    9  A    between atoms: _20  and  _21
REMARK   10  A    between atoms: _24  and  _26
REMARK   11  A    between atoms: _26  and  _27
REMARK   12  A    between atoms: _30  and  _32
REMARK   13  A    between atoms: _32  and  _33
REMARK   14  A    between atoms: _32  and  _35
REMARK   15  A    between atoms: _35  and  _36
REMARK   16  A    between atoms: _39  and  _41
REMARK   17  A    between atoms: _41  and  _42
REMARK   18  A    between atoms: _44  and  _46
REMARK   19  A    between atoms: _46  and  _47
REMARK   20  A    between atoms: _46  and  _49
REMARK   21  A    between atoms: _49  and  _50
REMARK   22  A    between atoms: _52  and  _54
REMARK   23  A    between atoms: _54  and  _55
REMARK   24  A    between atoms: _54  and  _57
REMARK   25  A    between atoms: _57  and  _58
REMARK   26  A    between atoms: _63  and  _65
REMARK   27  A    between atoms: _65  and  _66
REMARK   28  A    between atoms: _65  and  _68
REMARK   29  A    between atoms: _68  and  _69
REMARK   30  A    between atoms: _74  and  _75
REMARK   31  A    between atoms: _77  and  _79
REMARK   32  A    between atoms: _79  and  _80
REMARK   33  A    between atoms: _79  and  _82
REMARK   34  A    between atoms: _82  and  _83
REMARK   35  A    between atoms: _83  and  _84
REMARK   36  A    between atoms: _84  and  _85
REMARK   37  A    between atoms: _94  and  _96
REMARK   38  A    between atoms: _96  and  _97
REMARK   39  A    between atoms: _96  and  _99
REMARK   40  A    between atoms: _99  and  _100
REMARK   41  A    between atoms: _104  and  _105
REMARK   42  A    between atoms: _111  and  _112
REMARK   43  A    between atoms: _117  and  _119
REMARK   44  A    between atoms: _119  and  _120
REMARK   45  A    between atoms: _119  and  _122
REMARK   46  A    between atoms: _122  and  _123
REMARK   47  A    between atoms: _126  and  _128
REMARK   48  A    between atoms: _128  and  _129
REMARK   49  A    between atoms: _132  and  _133
REMARK   50  A    between atoms: _138  and  _140
REMARK   51  A    between atoms: _140  and  _141
REMARK   52  A    between atoms: _140  and  _143
REMARK   53  A    between atoms: _143  and  _144
REMARK   54  A    between atoms: _144  and  _145
REMARK   55  A    between atoms: _150  and  _152
REMARK   56  A    between atoms: _152  and  _153
REMARK   57  A    between atoms: _152  and  _155
REMARK   58  A    between atoms: _155  and  _156
REMARK   59  A    between atoms: _156  and  _157
REMARK   60  A    between atoms: _163  and  _164
REMARK   61  A    between atoms: _169  and  _171
REMARK   62  A    between atoms: _171  and  _172
REMARK   63  A    between atoms: _171  and  _174
REMARK   64  A    between atoms: _174  and  _175
REMARK   65  A    between atoms: _178  and  _180
REMARK   66  A    between atoms: _180  and  _181
REMARK   67  A    between atoms: _180  and  _183
REMARK   68  A    between atoms: _183  and  _184
REMARK   69  A    between atoms: _189  and  _190
REMARK   70  A    between atoms: _192  and  _194
REMARK   71  A    between atoms: _194  and  _195
REMARK   72  A    between atoms: _194  and  _197
REMARK   73  A    between atoms: _197  and  _198
REMARK   74  A    between atoms: _201  and  _203
REMARK   75  A    between atoms: _203  and  _204
REMARK   76  A    between atoms: _203  and  _206
REMARK   77  A    between atoms: _206  and  _207
REMARK   78  A    between atoms: _212  and  _214
REMARK   79  A    between atoms: _214  and  _215
REMARK   80  A    between atoms: _218  and  _220
REMARK   81  A    between atoms: _220  and  _221
REMARK   82  A    between atoms: _220  and  _223
REMARK   83  A    between atoms: _223  and  _224
REMARK   84  A    between atoms: _227  and  _229
REMARK   85  A    between atoms: _229  and  _230
REMARK   86  A    between atoms: _229  and  _232
REMARK   87  A    between atoms: _232  and  _233
REMARK   88  A    between atoms: _236  and  _238
REMARK   89  A    between atoms: _238  and  _239
REMARK   90  A    between atoms: _238  and  _241
REMARK   91  A    between atoms: _241  and  _242
REMARK   92  A    between atoms: _245  and  _247
REMARK   93  A    between atoms: _247  and  _248
REMARK   94  A    between atoms: _247  and  _250
REMARK   95  A    between atoms: _250  and  _251
REMARK   96  A    between atoms: _251  and  _252
REMARK   97  A    between atoms: _257  and  _259
REMARK   98  A    between atoms: _259  and  _260
REMARK   99  A    between atoms: _259  and  _262
REMARK  100  A    between atoms: _262  and  _263
REMARK  101  A    between atoms: _263  and  _264
REMARK  102  A    between atoms: _264  and  _265
REMARK  103  A    between atoms: _274  and  _276
REMARK  104  A    between atoms: _276  and  _277
REMARK  105  A    between atoms: _276  and  _279
REMARK  106  A    between atoms: _279  and  _280
REMARK  107  A    between atoms: _280  and  _281
REMARK  108  A    between atoms: _284  and  _286
REMARK  109  A    between atoms: _286  and  _287
REMARK  110  A    between atoms: _286  and  _289
REMARK  111  A    between atoms: _289  and  _290
REMARK  112  A    between atoms: _293  and  _295
REMARK  113  A    between atoms: _295  and  _296
REMARK  114  A    between atoms: _295  and  _298
REMARK  115  A    between atoms: _298  and  _299
REMARK  116  A    between atoms: _299  and  _300
REMARK  117  A    between atoms: _300  and  _301
REMARK  118  A    between atoms: _310  and  _312
REMARK  119  A    between atoms: _312  and  _313
REMARK  120  A    between atoms: _312  and  _315
REMARK  121  A    between atoms: _315  and  _316
REMARK  122  A    between atoms: _316  and  _317
REMARK  123  A    between atoms: _317  and  _318
REMARK  124  A    between atoms: _318  and  _319
REMARK  125  A    between atoms: _323  and  _325
REMARK  126  A    between atoms: _325  and  _326
REMARK  127  A    between atoms: _329  and  _331
REMARK  128  A    between atoms: _331  and  _332
REMARK  129  A    between atoms: _331  and  _334
REMARK  130  A    between atoms: _334  and  _335
REMARK  131  A    between atoms: _335  and  _336
REMARK  132  A    between atoms: _339  and  _341
REMARK  133  A    between atoms: _341  and  _342
REMARK  134  A    between atoms: _341  and  _344
REMARK  135  A    between atoms: _344  and  _345
REMARK  136  A    between atoms: _345  and  _346
REMARK  137  A    between atoms: _346  and  _347
REMARK  138  A    between atoms: _356  and  _358
REMARK  139  A    between atoms: _358  and  _359
REMARK  140  A    between atoms: _358  and  _361
REMARK  141  A    between atoms: _361  and  _362
REMARK  142  A    between atoms: _372  and  _374
REMARK  143  A    between atoms: _374  and  _375
REMARK  144  A    between atoms: _378  and  _379
REMARK  145  A    between atoms: _384  and  _386
REMARK  146  A    between atoms: _386  and  _387
REMARK  147  A    between atoms: _386  and  _389
REMARK  148  A    between atoms: _389  and  _390
REMARK  149  A    between atoms: _390  and  _391
REMARK  150  A    between atoms: _391  and  _392
REMARK  151  A    between atoms: _401  and  _403
REMARK  152  A    between atoms: _403  and  _404
REMARK  153  A    between atoms: _403  and  _406
REMARK  154  A    between atoms: _406  and  _407
REMARK  155  A    between atoms: _410  and  _412
REMARK  156  A    between atoms: _412  and  _413
REMARK  157  A    between atoms: _412  and  _415
REMARK  158  A    between atoms: _415  and  _416
REMARK  159  A    between atoms: _419  and  _421
REMARK  160  A    between atoms: _421  and  _422
REMARK  161  A    between atoms: _421  and  _424
REMARK  162  A    between atoms: _424  and  _425
REMARK  163  A    between atoms: _428  and  _430
REMARK  164  A    between atoms: _430  and  _431
REMARK  165  A    between atoms: _430  and  _433
REMARK  166  A    between atoms: _433  and  _434
REMARK  167  A    between atoms: _437  and  _439
REMARK  168  A    between atoms: _439  and  _440
REMARK  169  A    between atoms: _439  and  _442
REMARK  170  A    between atoms: _442  and  _443
REMARK  171  A    between atoms: _446  and  _448
REMARK  172  A    between atoms: _448  and  _449
REMARK  173  A    between atoms: _448  and  _451
REMARK  174  A    between atoms: _451  and  _452
REMARK  175  A    between atoms: _452  and  _453
REMARK  176  A    between atoms: _455  and  _457
REMARK  177  A    between atoms: _457  and  _458
REMARK  178  A    between atoms: _457  and  _460
REMARK  179  A    between atoms: _460  and  _461
REMARK  180  A    between atoms: _464  and  _466
REMARK  181  A    between atoms: _466  and  _467
REMARK  182  A    between atoms: _466  and  _469
REMARK  183  A    between atoms: _469  and  _470
REMARK  184  A    between atoms: _476  and  _478
REMARK  185  A    between atoms: _478  and  _479
REMARK  186  A    between atoms: _478  and  _481
REMARK  187  A    between atoms: _481  and  _482
REMARK  188  A    between atoms: _485  and  _487
REMARK  189  A    between atoms: _487  and  _488
REMARK  190  A    between atoms: _487  and  _490
REMARK  191  A    between atoms: _490  and  _491
REMARK  192  A    between atoms: _494  and  _496
REMARK  193  A    between atoms: _496  and  _497
REMARK  194  A    between atoms: _496  and  _499
REMARK  195  A    between atoms: _499  and  _500
REMARK  196  A    between atoms: _500  and  _501
REMARK  197  A    between atoms: _504  and  _506
REMARK  198  A    between atoms: _506  and  _507
REMARK  199  A    between atoms: _506  and  _509
REMARK  200  A    between atoms: _509  and  _510
REMARK  201  A    between atoms: _510  and  _511
REMARK  202  A    between atoms: _511  and  _512
REMARK  203  A    between atoms: _521  and  _523
REMARK  204  A    between atoms: _523  and  _524
REMARK  205  A    between atoms: _523  and  _526
REMARK  206  A    between atoms: _526  and  _527
REMARK  207  A    between atoms: _530  and  _532
REMARK  208  A    between atoms: _532  and  _533
REMARK  209  A    between atoms: _532  and  _535
REMARK  210  A    between atoms: _535  and  _536
REMARK  211  A    between atoms: _539  and  _541
REMARK  212  A    between atoms: _541  and  _542
REMARK  213  A    between atoms: _541  and  _544
REMARK  214  A    between atoms: _548  and  _549
REMARK  215  A    between atoms: _554  and  _556
REMARK  216  A    between atoms: _556  and  _557
REMARK  217  A    between atoms: _556  and  _559
REMARK  218  A    between atoms: _559  and  _560
REMARK  219  A    between atoms: _565  and  _567
REMARK  220  A    between atoms: _567  and  _568
REMARK  221  A    between atoms: _567  and  _570
REMARK  222  A    between atoms: _570  and  _571
REMARK  223  A    between atoms: _576  and  _577
REMARK  224  A    between atoms: _579  and  _581
REMARK  225  A    between atoms: _581  and  _582
REMARK  226  A    between atoms: _581  and  _584
REMARK  227  A    between atoms: _584  and  _585
REMARK  228  A    between atoms: _588  and  _590
REMARK  229  A    between atoms: _590  and  _591
REMARK  230  A    between atoms: _590  and  _593
REMARK  231  A    between atoms: _593  and  _594
REMARK  232  A    between atoms: _594  and  _595
REMARK  233  A    between atoms: _595  and  _596
REMARK  234  A    between atoms: _605  and  _607
REMARK  235  A    between atoms: _607  and  _608
REMARK  236  A    between atoms: _610  and  _612
REMARK  237  A    between atoms: _612  and  _613
REMARK  238  A    between atoms: _612  and  _615
REMARK  239  A    between atoms: _615  and  _616
REMARK  240  A    between atoms: _622  and  _624
REMARK  241  A    between atoms: _624  and  _625
REMARK  242  A    between atoms: _624  and  _627
REMARK  243  A    between atoms: _627  and  _628
REMARK  244  A    between atoms: _628  and  _629
REMARK  245  A    between atoms: _631  and  _633
REMARK  246  A    between atoms: _633  and  _634
REMARK  247  A    between atoms: _633  and  _636
REMARK  248  A    between atoms: _636  and  _637
REMARK                            x       y       z     vdW  Elec       q    Type
REMARK                         _______ _______ _______ _____ _____    ______ ____
ROOT
ATOM      1  O   HOH     1      -3.602  13.408   9.494  0.00  0.00    +0.000 OA
ENDROOT
TORSDOF 0
REMARK  Name = ../refined-set-2016/4f7v/4f7v_pocket.pdb
REMARK  248 active torsions:
REMARK  status: ('A' for Active; 'I' for Inactive)
REMARK    1  A    between atoms: _1  and  _3
REMARK    2  A    between atoms: _3  and  _4
REMARK    3  A    between atoms: _3  and  _6
REMARK    4  A    between atoms: _6  and  _7
REMARK    5  A    between atoms: _12  and  _13
REMARK    6  A    between atoms: _15  and  _17
REMARK    7  A    between atoms: _17  and  _18
REMARK    8  A    between atoms: _17  and  _20
REMARK    9  A    between atoms: _20  and  _21
REMARK   10  A    between atoms: _24  and  _26
REMARK   11  A    between atoms: _26  and  _27
REMARK   12  A    between atoms: _30  and  _32
REMARK   13  A    between atoms: _32  and  _33
REMARK   14  A    between atoms: _32  and  _35
REMARK   15  A    between atoms: _35  and  _36
REMARK   16  A    between atoms: _39  and  _41
REMARK   17  A    between atoms: _41  and  _42
REMARK   18  A    between atoms: _44  and  _46
REMARK   19  A    between atoms: _46  and  _47
REMARK   20  A    between atoms: _46  and  _49
REMARK   21  A    between atoms: _49  and  _50
REMARK   22  A    between atoms: _52  and  _54
REMARK   23  A    between atoms: _54  and  _55
REMARK   24  A    between atoms: _54  and  _57
REMARK   25  A    between atoms: _57  and  _58
REMARK   26  A    between atoms: _63  and  _65
REMARK   27  A    between atoms: _65  and  _66
REMARK   28  A    between atoms: _65  and  _68
REMARK   29  A    between atoms: _68  and  _69
REMARK   30  A    between atoms: _74  and  _75
REMARK   31  A    between atoms: _77  and  _79
REMARK   32  A    between atoms: _79  and  _80
REMARK   33  A    between atoms: _79  and  _82
REMARK   34  A    between atoms: _82  and  _83
REMARK   35  A    between atoms: _83  and  _84
REMARK   36  A    between atoms: _84  and  _85
REMARK   37  A    between atoms: _94  and  _96
REMARK   38  A    between atoms: _96  and  _97
REMARK   39  A    between atoms: _96  and  _99
REMARK   40  A    between atoms: _99  and  _100
REMARK   41  A    between atoms: _104  and  _105
REMARK   42  A    between atoms: _111  and  _112
REMARK   43  A    between atoms: _117  and  _119
REMARK   44  A    between atoms: _119  and  _120
REMARK   45  A    between atoms: _119  and  _122
REMARK   46  A    between atoms: _122  and  _123
REMARK   47  A    between atoms: _126  and  _128
REMARK   48  A    between atoms: _128  and  _129
REMARK   49  A    between atoms: _132  and  _133
REMARK   50  A    between atoms: _138  and  _140
REMARK   51  A    between atoms: _140  and  _141
REMARK   52  A    between atoms: _140  and  _143
REMARK   53  A    between atoms: _143  and  _144
REMARK   54  A    between atoms: _144  and  _145
REMARK   55  A    between atoms: _150  and  _152
REMARK   56  A    between atoms: _152  and  _153
REMARK   57  A    between atoms: _152  and  _155
REMARK   58  A    between atoms: _155  and  _156
REMARK   59  A    between atoms: _156  and  _157
REMARK   60  A    between atoms: _163  and  _164
REMARK   61  A    between atoms: _169  and  _171
REMARK   62  A    between atoms: _171  and  _172
REMARK   63  A    between atoms: _171  and  _174
REMARK   64  A    between atoms: _174  and  _175
REMARK   65  A    between atoms: _178  and  _180
REMARK   66  A    between atoms: _180  and  _181
REMARK   67  A    between atoms: _180  and  _183
REMARK   68  A    between atoms: _183  and  _184
REMARK   69  A    between atoms: _189  and  _190
REMARK   70  A    between atoms: _192  and  _194
REMARK   71  A    between atoms: _194  and  _195
REMARK   72  A    between atoms: _194  and  _197
REMARK   73  A    between atoms: _197  and  _198
REMARK   74  A    between atoms: _201  and  _203
REMARK   75  A    between atoms: _203  and  _204
REMARK   76  A    between atoms: _203  and  _206
REMARK   77  A    between atoms: _206  and  _207
REMARK   78  A    between atoms: _212  and  _214
REMARK   79  A    between atoms: _214  and  _215
REMARK   80  A    between atoms: _218  and  _220
REMARK   81  A    between atoms: _220  and  _221
REMARK   82  A    between atoms: _220  and  _223
REMARK   83  A    between atoms: _223  and  _224
REMARK   84  A    between atoms: _227  and  _229
REMARK   85  A    between atoms: _229  and  _230
REMARK   86  A    between atoms: _229  and  _232
REMARK   87  A    between atoms: _232  and  _233
REMARK   88  A    between atoms: _236  and  _238
REMARK   89  A    between atoms: _238  and  _239
REMARK   90  A    between atoms: _238  and  _241
REMARK   91  A    between atoms: _241  and  _242
REMARK   92  A    between atoms: _245  and  _247
REMARK   93  A    between atoms: _247  and  _248
REMARK   94  A    between atoms: _247  and  _250
REMARK   95  A    between atoms: _250  and  _251
REMARK   96  A    between atoms: _251  and  _252
REMARK   97  A    between atoms: _257  and  _259
REMARK   98  A    between atoms: _259  and  _260
REMARK   99  A    between atoms: _259  and  _262
REMARK  100  A    between atoms: _262  and  _263
REMARK  101  A    between atoms: _263  and  _264
REMARK  102  A    between atoms: _264  and  _265
REMARK  103  A    between atoms: _274  and  _276
REMARK  104  A    between atoms: _276  and  _277
REMARK  105  A    between atoms: _276  and  _279
REMARK  106  A    between atoms: _279  and  _280
REMARK  107  A    between atoms: _280  and  _281
REMARK  108  A    between atoms: _284  and  _286
REMARK  109  A    between atoms: _286  and  _287
REMARK  110  A    between atoms: _286  and  _289
REMARK  111  A    between atoms: _289  and  _290
REMARK  112  A    between atoms: _293  and  _295
REMARK  113  A    between atoms: _295  and  _296
REMARK  114  A    between atoms: _295  and  _298
REMARK  115  A    between atoms: _298  and  _299
REMARK  116  A    between atoms: _299  and  _300
REMARK  117  A    between atoms: _300  and  _301
REMARK  118  A    between atoms: _310  and  _312
REMARK  119  A    between atoms: _312  and  _313
REMARK  120  A    between atoms: _312  and  _315
REMARK  121  A    between atoms: _315  and  _316
REMARK  122  A    between atoms: _316  and  _317
REMARK  123  A    between atoms: _317  and  _318
REMARK  124  A    between atoms: _318  and  _319
REMARK  125  A    between atoms: _323  and  _325
REMARK  126  A    between atoms: _325  and  _326
REMARK  127  A    between atoms: _329  and  _331
REMARK  128  A    between atoms: _331  and  _332
REMARK  129  A    between atoms: _331  and  _334
REMARK  130  A    between atoms: _334  and  _335
REMARK  131  A    between atoms: _335  and  _336
REMARK  132  A    between atoms: _339  and  _341
REMARK  133  A    between atoms: _341  and  _342
REMARK  134  A    between atoms: _341  and  _344
REMARK  135  A    between atoms: _344  and  _345
REMARK  136  A    between atoms: _345  and  _346
REMARK  137  A    between atoms: _346  and  _347
REMARK  138  A    between atoms: _356  and  _358
REMARK  139  A    between atoms: _358  and  _359
REMARK  140  A    between atoms: _358  and  _361
REMARK  141  A    between atoms: _361  and  _362
REMARK  142  A    between atoms: _372  and  _374
REMARK  143  A    between atoms: _374  and  _375
REMARK  144  A    between atoms: _378  and  _379
REMARK  145  A    between atoms: _384  and  _386
REMARK  146  A    between atoms: _386  and  _387
REMARK  147  A    between atoms: _386  and  _389
REMARK  148  A    between atoms: _389  and  _390
REMARK  149  A    between atoms: _390  and  _391
REMARK  150  A    between atoms: _391  and  _392
REMARK  151  A    between atoms: _401  and  _403
REMARK  152  A    between atoms: _403  and  _404
REMARK  153  A    between atoms: _403  and  _406
REMARK  154  A    between atoms: _406  and  _407
REMARK  155  A    between atoms: _410  and  _412
REMARK  156  A    between atoms: _412  and  _413
REMARK  157  A    between atoms: _412  and  _415
REMARK  158  A    between atoms: _415  and  _416
REMARK  159  A    between atoms: _419  and  _421
REMARK  160  A    between atoms: _421  and  _422
REMARK  161  A    between atoms: _421  and  _424
REMARK  162  A    between atoms: _424  and  _425
REMARK  163  A    between atoms: _428  and  _430
REMARK  164  A    between atoms: _430  and  _431
REMARK  165  A    between atoms: _430  and  _433
REMARK  166  A    between atoms: _433  and  _434
REMARK  167  A    between atoms: _437  and  _439
REMARK  168  A    between atoms: _439  and  _440
REMARK  169  A    between atoms: _439  and  _442
REMARK  170  A    between atoms: _442  and  _443
REMARK  171  A    between atoms: _446  and  _448
REMARK  172  A    between atoms: _448  and  _449
REMARK  173  A    between atoms: _448  and  _451
REMARK  174  A    between atoms: _451  and  _452
REMARK  175  A    between atoms: _452  and  _453
REMARK  176  A    between atoms: _455  and  _457
REMARK  177  A    between atoms: _457  and  _458
REMARK  178  A    between atoms: _457  and  _460
REMARK  179  A    between atoms: _460  and  _461
REMARK  180  A    between atoms: _464  and  _466
REMARK  181  A    between atoms: _466  and  _467
REMARK  182  A    between atoms: _466  and  _469
REMARK  183  A    between atoms: _469  and  _470
REMARK  184  A    between atoms: _476  and  _478
REMARK  185  A    between atoms: _478  and  _479
REMARK  186  A    between atoms: _478  and  _481
REMARK  187  A    between atoms: _481  and  _482
REMARK  188  A    between atoms: _485  and  _487
REMARK  189  A    between atoms: _487  and  _488
REMARK  190  A    between atoms: _487  and  _490
REMARK  191  A    between atoms: _490  and  _491
REMARK  192  A    between atoms: _494  and  _496
REMARK  193  A    between atoms: _496  and  _497
REMARK  194  A    between atoms: _496  and  _499
REMARK  195  A    between atoms: _499  and  _500
REMARK  196  A    between atoms: _500  and  _501
REMARK  197  A    between atoms: _504  and  _506
REMARK  198  A    between atoms: _506  and  _507
REMARK  199  A    between atoms: _506  and  _509
REMARK  200  A    between atoms: _509  and  _510
REMARK  201  A    between atoms: _510  and  _511
REMARK  202  A    between atoms: _511  and  _512
REMARK  203  A    between atoms: _521  and  _523
REMARK  204  A    between atoms: _523  and  _524
REMARK  205  A    between atoms: _523  and  _526
REMARK  206  A    between atoms: _526  and  _527
REMARK  207  A    between atoms: _530  and  _532
REMARK  208  A    between atoms: _532  and  _533
REMARK  209  A    between atoms: _532  and  _535
REMARK  210  A    between atoms: _535  and  _536
REMARK  211  A    between atoms: _539  and  _541
REMARK  212  A    between atoms: _541  and  _542
REMARK  213  A    between atoms: _541  and  _544
REMARK  214  A    between atoms: _548  and  _549
REMARK  215  A    between atoms: _554  and  _556
REMARK  216  A    between atoms: _556  and  _557
REMARK  217  A    between atoms: _556  and  _559
REMARK  218  A    between atoms: _559  and  _560
REMARK  219  A    between atoms: _565  and  _567
REMARK  220  A    between atoms: _567  and  _568
REMARK  221  A    between atoms: _567  and  _570
REMARK  222  A    between atoms: _570  and  _571
REMARK  223  A    between atoms: _576  and  _577
REMARK  224  A    between atoms: _579  and  _581
REMARK  225  A    between atoms: _581  and  _582
REMARK  226  A    between atoms: _581  and  _584
REMARK  227  A    between atoms: _584  and  _585
REMARK  228  A    between atoms: _588  and  _590
REMARK  229  A    between atoms: _590  and  _591
REMARK  230  A    between atoms: _590  and  _593
REMARK  231  A    between atoms: _593  and  _594
REMARK  232  A    between atoms: _594  and  _595
REMARK  233  A    between atoms: _595  and  _596
REMARK  234  A    between atoms: _605  and  _607
REMARK  235  A    between atoms: _607  and  _608
REMARK  236  A    between atoms: _610  and  _612
REMARK  237  A    between atoms: _612  and  _613
REMARK  238  A    between atoms: _612  and  _615
REMARK  239  A    between atoms: _615  and  _616
REMARK  240  A    between atoms: _622  and  _624
REMARK  241  A    between atoms: _624  and  _625
REMARK  242  A    between atoms: _624  and  _627
REMARK  243  A    between atoms: _627  and  _628
REMARK  244  A    between atoms: _628  and  _629
REMARK  245  A    between atoms: _631  and  _633
REMARK  246  A    between atoms: _633  and  _634
REMARK  247  A    between atoms: _633  and  _636
REMARK  248  A    between atoms: _636  and  _637
REMARK                            x       y       z     vdW  Elec       q    Type
REMARK                         _______ _______ _______ _____ _____    ______ ____
ROOT
ATOM      1  O   HOH     1       4.440  25.547  -1.634  0.00  0.00    +0.000 OA
ENDROOT
TORSDOF 0
REMARK  Name = ../refined-set-2016/4f7v/4f7v_pocket.pdb
REMARK  248 active torsions:
REMARK  status: ('A' for Active; 'I' for Inactive)
REMARK    1  A    between atoms: _1  and  _3
REMARK    2  A    between atoms: _3  and  _4
REMARK    3  A    between atoms: _3  and  _6
REMARK    4  A    between atoms: _6  and  _7
REMARK    5  A    between atoms: _12  and  _13
REMARK    6  A    between atoms: _15  and  _17
REMARK    7  A    between atoms: _17  and  _18
REMARK    8  A    between atoms: _17  and  _20
REMARK    9  A    between atoms: _20  and  _21
REMARK   10  A    between atoms: _24  and  _26
REMARK   11  A    between atoms: _26  and  _27
REMARK   12  A    between atoms: _30  and  _32
REMARK   13  A    between atoms: _32  and  _33
REMARK   14  A    between atoms: _32  and  _35
REMARK   15  A    between atoms: _35  and  _36
REMARK   16  A    between atoms: _39  and  _41
REMARK   17  A    between atoms: _41  and  _42
REMARK   18  A    between atoms: _44  and  _46
REMARK   19  A    between atoms: _46  and  _47
REMARK   20  A    between atoms: _46  and  _49
REMARK   21  A    between atoms: _49  and  _50
REMARK   22  A    between atoms: _52  and  _54
REMARK   23  A    between atoms: _54  and  _55
REMARK   24  A    between atoms: _54  and  _57
REMARK   25  A    between atoms: _57  and  _58
REMARK   26  A    between atoms: _63  and  _65
REMARK   27  A    between atoms: _65  and  _66
REMARK   28  A    between atoms: _65  and  _68
REMARK   29  A    between atoms: _68  and  _69
REMARK   30  A    between atoms: _74  and  _75
REMARK   31  A    between atoms: _77  and  _79
REMARK   32  A    between atoms: _79  and  _80
REMARK   33  A    between atoms: _79  and  _82
REMARK   34  A    between atoms: _82  and  _83
REMARK   35  A    between atoms: _83  and  _84
REMARK   36  A    between atoms: _84  and  _85
REMARK   37  A    between atoms: _94  and  _96
REMARK   38  A    between atoms: _96  and  _97
REMARK   39  A    between atoms: _96  and  _99
REMARK   40  A    between atoms: _99  and  _100
REMARK   41  A    between atoms: _104  and  _105
REMARK   42  A    between atoms: _111  and  _112
REMARK   43  A    between atoms: _117  and  _119
REMARK   44  A    between atoms: _119  and  _120
REMARK   45  A    between atoms: _119  and  _122
REMARK   46  A    between atoms: _122  and  _123
REMARK   47  A    between atoms: _126  and  _128
REMARK   48  A    between atoms: _128  and  _129
REMARK   49  A    between atoms: _132  and  _133
REMARK   50  A    between atoms: _138  and  _140
REMARK   51  A    between atoms: _140  and  _141
REMARK   52  A    between atoms: _140  and  _143
REMARK   53  A    between atoms: _143  and  _144
REMARK   54  A    between atoms: _144  and  _145
REMARK   55  A    between atoms: _150  and  _152
REMARK   56  A    between atoms: _152  and  _153
REMARK   57  A    between atoms: _152  and  _155
REMARK   58  A    between atoms: _155  and  _156
REMARK   59  A    between atoms: _156  and  _157
REMARK   60  A    between atoms: _163  and  _164
REMARK   61  A    between atoms: _169  and  _171
REMARK   62  A    between atoms: _171  and  _172
REMARK   63  A    between atoms: _171  and  _174
REMARK   64  A    between atoms: _174  and  _175
REMARK   65  A    between atoms: _178  and  _180
REMARK   66  A    between atoms: _180  and  _181
REMARK   67  A    between atoms: _180  and  _183
REMARK   68  A    between atoms: _183  and  _184
REMARK   69  A    between atoms: _189  and  _190
REMARK   70  A    between atoms: _192  and  _194
REMARK   71  A    between atoms: _194  and  _195
REMARK   72  A    between atoms: _194  and  _197
REMARK   73  A    between atoms: _197  and  _198
REMARK   74  A    between atoms: _201  and  _203
REMARK   75  A    between atoms: _203  and  _204
REMARK   76  A    between atoms: _203  and  _206
REMARK   77  A    between atoms: _206  and  _207
REMARK   78  A    between atoms: _212  and  _214
REMARK   79  A    between atoms: _214  and  _215
REMARK   80  A    between atoms: _218  and  _220
REMARK   81  A    between atoms: _220  and  _221
REMARK   82  A    between atoms: _220  and  _223
REMARK   83  A    between atoms: _223  and  _224
REMARK   84  A    between atoms: _227  and  _229
REMARK   85  A    between atoms: _229  and  _230
REMARK   86  A    between atoms: _229  and  _232
REMARK   87  A    between atoms: _232  and  _233
REMARK   88  A    between atoms: _236  and  _238
REMARK   89  A    between atoms: _238  and  _239
REMARK   90  A    between atoms: _238  and  _241
REMARK   91  A    between atoms: _241  and  _242
REMARK   92  A    between atoms: _245  and  _247
REMARK   93  A    between atoms: _247  and  _248
REMARK   94  A    between atoms: _247  and  _250
REMARK   95  A    between atoms: _250  and  _251
REMARK   96  A    between atoms: _251  and  _252
REMARK   97  A    between atoms: _257  and  _259
REMARK   98  A    between atoms: _259  and  _260
REMARK   99  A    between atoms: _259  and  _262
REMARK  100  A    between atoms: _262  and  _263
REMARK  101  A    between atoms: _263  and  _264
REMARK  102  A    between atoms: _264  and  _265
REMARK  103  A    between atoms: _274  and  _276
REMARK  104  A    between atoms: _276  and  _277
REMARK  105  A    between atoms: _276  and  _279
REMARK  106  A    between atoms: _279  and  _280
REMARK  107  A    between atoms: _280  and  _281
REMARK  108  A    between atoms: _284  and  _286
REMARK  109  A    between atoms: _286  and  _287
REMARK  110  A    between atoms: _286  and  _289
REMARK  111  A    between atoms: _289  and  _290
REMARK  112  A    between atoms: _293  and  _295
REMARK  113  A    between atoms: _295  and  _296
REMARK  114  A    between atoms: _295  and  _298
REMARK  115  A    between atoms: _298  and  _299
REMARK  116  A    between atoms: _299  and  _300
REMARK  117  A    between atoms: _300  and  _301
REMARK  118  A    between atoms: _310  and  _312
REMARK  119  A    between atoms: _312  and  _313
REMARK  120  A    between atoms: _312  and  _315
REMARK  121  A    between atoms: _315  and  _316
REMARK  122  A    between atoms: _316  and  _317
REMARK  123  A    between atoms: _317  and  _318
REMARK  124  A    between atoms: _318  and  _319
REMARK  125  A    between atoms: _323  and  _325
REMARK  126  A    between atoms: _325  and  _326
REMARK  127  A    between atoms: _329  and  _331
REMARK  128  A    between atoms: _331  and  _332
REMARK  129  A    between atoms: _331  and  _334
REMARK  130  A    between atoms: _334  and  _335
REMARK  131  A    between atoms: _335  and  _336
REMARK  132  A    between atoms: _339  and  _341
REMARK  133  A    between atoms: _341  and  _342
REMARK  134  A    between atoms: _341  and  _344
REMARK  135  A    between atoms: _344  and  _345
REMARK  136  A    between atoms: _345  and  _346
REMARK  137  A    between atoms: _346  and  _347
REMARK  138  A    between atoms: _356  and  _358
REMARK  139  A    between atoms: _358  and  _359
REMARK  140  A    between atoms: _358  and  _361
REMARK  141  A    between atoms: _361  and  _362
REMARK  142  A    between atoms: _372  and  _374
REMARK  143  A    between atoms: _374  and  _375
REMARK  144  A    between atoms: _378  and  _379
REMARK  145  A    between atoms: _384  and  _386
REMARK  146  A    between atoms: _386  and  _387
REMARK  147  A    between atoms: _386  and  _389
REMARK  148  A    between atoms: _389  and  _390
REMARK  149  A    between atoms: _390  and  _391
REMARK  150  A    between atoms: _391  and  _392
REMARK  151  A    between atoms: _401  and  _403
REMARK  152  A    between atoms: _403  and  _404
REMARK  153  A    between atoms: _403  and  _406
REMARK  154  A    between atoms: _406  and  _407
REMARK  155  A    between atoms: _410  and  _412
REMARK  156  A    between atoms: _412  and  _413
REMARK  157  A    between atoms: _412  and  _415
REMARK  158  A    between atoms: _415  and  _416
REMARK  159  A    between atoms: _419  and  _421
REMARK  160  A    between atoms: _421  and  _422
REMARK  161  A    between atoms: _421  and  _424
REMARK  162  A    between atoms: _424  and  _425
REMARK  163  A    between atoms: _428  and  _430
REMARK  164  A    between atoms: _430  and  _431
REMARK  165  A    between atoms: _430  and  _433
REMARK  166  A    between atoms: _433  and  _434
REMARK  167  A    between atoms: _437  and  _439
REMARK  168  A    between atoms: _439  and  _440
REMARK  169  A    between atoms: _439  and  _442
REMARK  170  A    between atoms: _442  and  _443
REMARK  171  A    between atoms: _446  and  _448
REMARK  172  A    between atoms: _448  and  _449
REMARK  173  A    between atoms: _448  and  _451
REMARK  174  A    between atoms: _451  and  _452
REMARK  175  A    between atoms: _452  and  _453
REMARK  176  A    between atoms: _455  and  _457
REMARK  177  A    between atoms: _457  and  _458
REMARK  178  A    between atoms: _457  and  _460
REMARK  179  A    between atoms: _460  and  _461
REMARK  180  A    between atoms: _464  and  _466
REMARK  181  A    between atoms: _466  and  _467
REMARK  182  A    between atoms: _466  and  _469
REMARK  183  A    between atoms: _469  and  _470
REMARK  184  A    between atoms: _476  and  _478
REMARK  185  A    between atoms: _478  and  _479
REMARK  186  A    between atoms: _478  and  _481
REMARK  187  A    between atoms: _481  and  _482
REMARK  188  A    between atoms: _485  and  _487
REMARK  189  A    between atoms: _487  and  _488
REMARK  190  A    between atoms: _487  and  _490
REMARK  191  A    between atoms: _490  and  _491
REMARK  192  A    between atoms: _494  and  _496
REMARK  193  A    between atoms: _496  and  _497
REMARK  194  A    between atoms: _496  and  _499
REMARK  195  A    between atoms: _499  and  _500
REMARK  196  A    between atoms: _500  and  _501
REMARK  197  A    between atoms: _504  and  _506
REMARK  198  A    between atoms: _506  and  _507
REMARK  199  A    between atoms: _506  and  _509
REMARK  200  A    between atoms: _509  and  _510
REMARK  201  A    between atoms: _510  and  _511
REMARK  202  A    between atoms: _511  and  _512
REMARK  203  A    between atoms: _521  and  _523
REMARK  204  A    between atoms: _523  and  _524
REMARK  205  A    between atoms: _523  and  _526
REMARK  206  A    between atoms: _526  and  _527
REMARK  207  A    between atoms: _530  and  _532
REMARK  208  A    between atoms: _532  and  _533
REMARK  209  A    between atoms: _532  and  _535
REMARK  210  A    between atoms: _535  and  _536
REMARK  211  A    between atoms: _539  and  _541
REMARK  212  A    between atoms: _541  and  _542
REMARK  213  A    between atoms: _541  and  _544
REMARK  214  A    between atoms: _548  and  _549
REMARK  215  A    between atoms: _554  and  _556
REMARK  216  A    between atoms: _556  and  _557
REMARK  217  A    between atoms: _556  and  _559
REMARK  218  A    between atoms: _559  and  _560
REMARK  219  A    between atoms: _565  and  _567
REMARK  220  A    between atoms: _567  and  _568
REMARK  221  A    between atoms: _567  and  _570
REMARK  222  A    between atoms: _570  and  _571
REMARK  223  A    between atoms: _576  and  _577
REMARK  224  A    between atoms: _579  and  _581
REMARK  225  A    between atoms: _581  and  _582
REMARK  226  A    between atoms: _581  and  _584
REMARK  227  A    between atoms: _584  and  _585
REMARK  228  A    between atoms: _588  and  _590
REMARK  229  A    between atoms: _590  and  _591
REMARK  230  A    between atoms: _590  and  _593
REMARK  231  A    between atoms: _593  and  _594
REMARK  232  A    between atoms: _594  and  _595
REMARK  233  A    between atoms: _595  and  _596
REMARK  234  A    between atoms: _605  and  _607
REMARK  235  A    between atoms: _607  and  _608
REMARK  236  A    between atoms: _610  and  _612
REMARK  237  A    between atoms: _612  and  _613
REMARK  238  A    between atoms: _612  and  _615
REMARK  239  A    between atoms: _615  and  _616
REMARK  240  A    between atoms: _622  and  _624
REMARK  241  A    between atoms: _624  and  _625
REMARK  242  A    between atoms: _624  and  _627
REMARK  243  A    between atoms: _627  and  _628
REMARK  244  A    between atoms: _628  and  _629
REMARK  245  A    between atoms: _631  and  _633
REMARK  246  A    between atoms: _633  and  _634
REMARK  247  A    between atoms: _633  and  _636
REMARK  248  A    between atoms: _636  and  _637
REMARK                            x       y       z     vdW  Elec       q    Type
REMARK                         _______ _______ _______ _____ _____    ______ ____
ROOT
ATOM      1  O   HOH     1       2.060  25.289   1.015  0.00  0.00    +0.000 OA
ENDROOT
TORSDOF 0
REMARK  Name = ../refined-set-2016/4f7v/4f7v_pocket.pdb
REMARK  248 active torsions:
REMARK  status: ('A' for Active; 'I' for Inactive)
REMARK    1  A    between atoms: _1  and  _3
REMARK    2  A    between atoms: _3  and  _4
REMARK    3  A    between atoms: _3  and  _6
REMARK    4  A    between atoms: _6  and  _7
REMARK    5  A    between atoms: _12  and  _13
REMARK    6  A    between atoms: _15  and  _17
REMARK    7  A    between atoms: _17  and  _18
REMARK    8  A    between atoms: _17  and  _20
REMARK    9  A    between atoms: _20  and  _21
REMARK   10  A    between atoms: _24  and  _26
REMARK   11  A    between atoms: _26  and  _27
REMARK   12  A    between atoms: _30  and  _32
REMARK   13  A    between atoms: _32  and  _33
REMARK   14  A    between atoms: _32  and  _35
REMARK   15  A    between atoms: _35  and  _36
REMARK   16  A    between atoms: _39  and  _41
REMARK   17  A    between atoms: _41  and  _42
REMARK   18  A    between atoms: _44  and  _46
REMARK   19  A    between atoms: _46  and  _47
REMARK   20  A    between atoms: _46  and  _49
REMARK   21  A    between atoms: _49  and  _50
REMARK   22  A    between atoms: _52  and  _54
REMARK   23  A    between atoms: _54  and  _55
REMARK   24  A    between atoms: _54  and  _57
REMARK   25  A    between atoms: _57  and  _58
REMARK   26  A    between atoms: _63  and  _65
REMARK   27  A    between atoms: _65  and  _66
REMARK   28  A    between atoms: _65  and  _68
REMARK   29  A    between atoms: _68  and  _69
REMARK   30  A    between atoms: _74  and  _75
REMARK   31  A    between atoms: _77  and  _79
REMARK   32  A    between atoms: _79  and  _80
REMARK   33  A    between atoms: _79  and  _82
REMARK   34  A    between atoms: _82  and  _83
REMARK   35  A    between atoms: _83  and  _84
REMARK   36  A    between atoms: _84  and  _85
REMARK   37  A    between atoms: _94  and  _96
REMARK   38  A    between atoms: _96  and  _97
REMARK   39  A    between atoms: _96  and  _99
REMARK   40  A    between atoms: _99  and  _100
REMARK   41  A    between atoms: _104  and  _105
REMARK   42  A    between atoms: _111  and  _112
REMARK   43  A    between atoms: _117  and  _119
REMARK   44  A    between atoms: _119  and  _120
REMARK   45  A    between atoms: _119  and  _122
REMARK   46  A    between atoms: _122  and  _123
REMARK   47  A    between atoms: _126  and  _128
REMARK   48  A    between atoms: _128  and  _129
REMARK   49  A    between atoms: _132  and  _133
REMARK   50  A    between atoms: _138  and  _140
REMARK   51  A    between atoms: _140  and  _141
REMARK   52  A    between atoms: _140  and  _143
REMARK   53  A    between atoms: _143  and  _144
REMARK   54  A    between atoms: _144  and  _145
REMARK   55  A    between atoms: _150  and  _152
REMARK   56  A    between atoms: _152  and  _153
REMARK   57  A    between atoms: _152  and  _155
REMARK   58  A    between atoms: _155  and  _156
REMARK   59  A    between atoms: _156  and  _157
REMARK   60  A    between atoms: _163  and  _164
REMARK   61  A    between atoms: _169  and  _171
REMARK   62  A    between atoms: _171  and  _172
REMARK   63  A    between atoms: _171  and  _174
REMARK   64  A    between atoms: _174  and  _175
REMARK   65  A    between atoms: _178  and  _180
REMARK   66  A    between atoms: _180  and  _181
REMARK   67  A    between atoms: _180  and  _183
REMARK   68  A    between atoms: _183  and  _184
REMARK   69  A    between atoms: _189  and  _190
REMARK   70  A    between atoms: _192  and  _194
REMARK   71  A    between atoms: _194  and  _195
REMARK   72  A    between atoms: _194  and  _197
REMARK   73  A    between atoms: _197  and  _198
REMARK   74  A    between atoms: _201  and  _203
REMARK   75  A    between atoms: _203  and  _204
REMARK   76  A    between atoms: _203  and  _206
REMARK   77  A    between atoms: _206  and  _207
REMARK   78  A    between atoms: _212  and  _214
REMARK   79  A    between atoms: _214  and  _215
REMARK   80  A    between atoms: _218  and  _220
REMARK   81  A    between atoms: _220  and  _221
REMARK   82  A    between atoms: _220  and  _223
REMARK   83  A    between atoms: _223  and  _224
REMARK   84  A    between atoms: _227  and  _229
REMARK   85  A    between atoms: _229  and  _230
REMARK   86  A    between atoms: _229  and  _232
REMARK   87  A    between atoms: _232  and  _233
REMARK   88  A    between atoms: _236  and  _238
REMARK   89  A    between atoms: _238  and  _239
REMARK   90  A    between atoms: _238  and  _241
REMARK   91  A    between atoms: _241  and  _242
REMARK   92  A    between atoms: _245  and  _247
REMARK   93  A    between atoms: _247  and  _248
REMARK   94  A    between atoms: _247  and  _250
REMARK   95  A    between atoms: _250  and  _251
REMARK   96  A    between atoms: _251  and  _252
REMARK   97  A    between atoms: _257  and  _259
REMARK   98  A    between atoms: _259  and  _260
REMARK   99  A    between atoms: _259  and  _262
REMARK  100  A    between atoms: _262  and  _263
REMARK  101  A    between atoms: _263  and  _264
REMARK  102  A    between atoms: _264  and  _265
REMARK  103  A    between atoms: _274  and  _276
REMARK  104  A    between atoms: _276  and  _277
REMARK  105  A    between atoms: _276  and  _279
REMARK  106  A    between atoms: _279  and  _280
REMARK  107  A    between atoms: _280  and  _281
REMARK  108  A    between atoms: _284  and  _286
REMARK  109  A    between atoms: _286  and  _287
REMARK  110  A    between atoms: _286  and  _289
REMARK  111  A    between atoms: _289  and  _290
REMARK  112  A    between atoms: _293  and  _295
REMARK  113  A    between atoms: _295  and  _296
REMARK  114  A    between atoms: _295  and  _298
REMARK  115  A    between atoms: _298  and  _299
REMARK  116  A    between atoms: _299  and  _300
REMARK  117  A    between atoms: _300  and  _301
REMARK  118  A    between atoms: _310  and  _312
REMARK  119  A    between atoms: _312  and  _313
REMARK  120  A    between atoms: _312  and  _315
REMARK  121  A    between atoms: _315  and  _316
REMARK  122  A    between atoms: _316  and  _317
REMARK  123  A    between atoms: _317  and  _318
REMARK  124  A    between atoms: _318  and  _319
REMARK  125  A    between atoms: _323  and  _325
REMARK  126  A    between atoms: _325  and  _326
REMARK  127  A    between atoms: _329  and  _331
REMARK  128  A    between atoms: _331  and  _332
REMARK  129  A    between atoms: _331  and  _334
REMARK  130  A    between atoms: _334  and  _335
REMARK  131  A    between atoms: _335  and  _336
REMARK  132  A    between atoms: _339  and  _341
REMARK  133  A    between atoms: _341  and  _342
REMARK  134  A    between atoms: _341  and  _344
REMARK  135  A    between atoms: _344  and  _345
REMARK  136  A    between atoms: _345  and  _346
REMARK  137  A    between atoms: _346  and  _347
REMARK  138  A    between atoms: _356  and  _358
REMARK  139  A    between atoms: _358  and  _359
REMARK  140  A    between atoms: _358  and  _361
REMARK  141  A    between atoms: _361  and  _362
REMARK  142  A    between atoms: _372  and  _374
REMARK  143  A    between atoms: _374  and  _375
REMARK  144  A    between atoms: _378  and  _379
REMARK  145  A    between atoms: _384  and  _386
REMARK  146  A    between atoms: _386  and  _387
REMARK  147  A    between atoms: _386  and  _389
REMARK  148  A    between atoms: _389  and  _390
REMARK  149  A    between atoms: _390  and  _391
REMARK  150  A    between atoms: _391  and  _392
REMARK  151  A    between atoms: _401  and  _403
REMARK  152  A    between atoms: _403  and  _404
REMARK  153  A    between atoms: _403  and  _406
REMARK  154  A    between atoms: _406  and  _407
REMARK  155  A    between atoms: _410  and  _412
REMARK  156  A    between atoms: _412  and  _413
REMARK  157  A    between atoms: _412  and  _415
REMARK  158  A    between atoms: _415  and  _416
REMARK  159  A    between atoms: _419  and  _421
REMARK  160  A    between atoms: _421  and  _422
REMARK  161  A    between atoms: _421  and  _424
REMARK  162  A    between atoms: _424  and  _425
REMARK  163  A    between atoms: _428  and  _430
REMARK  164  A    between atoms: _430  and  _431
REMARK  165  A    between atoms: _430  and  _433
REMARK  166  A    between atoms: _433  and  _434
REMARK  167  A    between atoms: _437  and  _439
REMARK  168  A    between atoms: _439  and  _440
REMARK  169  A    between atoms: _439  and  _442
REMARK  170  A    between atoms: _442  and  _443
REMARK  171  A    between atoms: _446  and  _448
REMARK  172  A    between atoms: _448  and  _449
REMARK  173  A    between atoms: _448  and  _451
REMARK  174  A    between atoms: _451  and  _452
REMARK  175  A    between atoms: _452  and  _453
REMARK  176  A    between atoms: _455  and  _457
REMARK  177  A    between atoms: _457  and  _458
REMARK  178  A    between atoms: _457  and  _460
REMARK  179  A    between atoms: _460  and  _461
REMARK  180  A    between atoms: _464  and  _466
REMARK  181  A    between atoms: _466  and  _467
REMARK  182  A    between atoms: _466  and  _469
REMARK  183  A    between atoms: _469  and  _470
REMARK  184  A    between atoms: _476  and  _478
REMARK  185  A    between atoms: _478  and  _479
REMARK  186  A    between atoms: _478  and  _481
REMARK  187  A    between atoms: _481  and  _482
REMARK  188  A    between atoms: _485  and  _487
REMARK  189  A    between atoms: _487  and  _488
REMARK  190  A    between atoms: _487  and  _490
REMARK  191  A    between atoms: _490  and  _491
REMARK  192  A    between atoms: _494  and  _496
REMARK  193  A    between atoms: _496  and  _497
REMARK  194  A    between atoms: _496  and  _499
REMARK  195  A    between atoms: _499  and  _500
REMARK  196  A    between atoms: _500  and  _501
REMARK  197  A    between atoms: _504  and  _506
REMARK  198  A    between atoms: _506  and  _507
REMARK  199  A    between atoms: _506  and  _509
REMARK  200  A    between atoms: _509  and  _510
REMARK  201  A    between atoms: _510  and  _511
REMARK  202  A    between atoms: _511  and  _512
REMARK  203  A    between atoms: _521  and  _523
REMARK  204  A    between atoms: _523  and  _524
REMARK  205  A    between atoms: _523  and  _526
REMARK  206  A    between atoms: _526  and  _527
REMARK  207  A    between atoms: _530  and  _532
REMARK  208  A    between atoms: _532  and  _533
REMARK  209  A    between atoms: _532  and  _535
REMARK  210  A    between atoms: _535  and  _536
REMARK  211  A    between atoms: _539  and  _541
REMARK  212  A    between atoms: _541  and  _542
REMARK  213  A    between atoms: _541  and  _544
REMARK  214  A    between atoms: _548  and  _549
REMARK  215  A    between atoms: _554  and  _556
REMARK  216  A    between atoms: _556  and  _557
REMARK  217  A    between atoms: _556  and  _559
REMARK  218  A    between atoms: _559  and  _560
REMARK  219  A    between atoms: _565  and  _567
REMARK  220  A    between atoms: _567  and  _568
REMARK  221  A    between atoms: _567  and  _570
REMARK  222  A    between atoms: _570  and  _571
REMARK  223  A    between atoms: _576  and  _577
REMARK  224  A    between atoms: _579  and  _581
REMARK  225  A    between atoms: _581  and  _582
REMARK  226  A    between atoms: _581  and  _584
REMARK  227  A    between atoms: _584  and  _585
REMARK  228  A    between atoms: _588  and  _590
REMARK  229  A    between atoms: _590  and  _591
REMARK  230  A    between atoms: _590  and  _593
REMARK  231  A    between atoms: _593  and  _594
REMARK  232  A    between atoms: _594  and  _595
REMARK  233  A    between atoms: _595  and  _596
REMARK  234  A    between atoms: _605  and  _607
REMARK  235  A    between atoms: _607  and  _608
REMARK  236  A    between atoms: _610  and  _612
REMARK  237  A    between atoms: _612  and  _613
REMARK  238  A    between atoms: _612  and  _615
REMARK  239  A    between atoms: _615  and  _616
REMARK  240  A    between atoms: _622  and  _624
REMARK  241  A    between atoms: _624  and  _625
REMARK  242  A    between atoms: _624  and  _627
REMARK  243  A    between atoms: _627  and  _628
REMARK  244  A    between atoms: _628  and  _629
REMARK  245  A    between atoms: _631  and  _633
REMARK  246  A    between atoms: _633  and  _634
REMARK  247  A    between atoms: _633  and  _636
REMARK  248  A    between atoms: _636  and  _637
REMARK                            x       y       z     vdW  Elec       q    Type
REMARK                         _______ _______ _______ _____ _____    ______ ____
ROOT
ATOM      1  O   HOH     1      -1.317  11.843  12.863  0.00  0.00    +0.000 OA
ENDROOT
TORSDOF 0
REMARK  Name = ../refined-set-2016/4f7v/4f7v_pocket.pdb
REMARK  248 active torsions:
REMARK  status: ('A' for Active; 'I' for Inactive)
REMARK    1  A    between atoms: _1  and  _3
REMARK    2  A    between atoms: _3  and  _4
REMARK    3  A    between atoms: _3  and  _6
REMARK    4  A    between atoms: _6  and  _7
REMARK    5  A    between atoms: _12  and  _13
REMARK    6  A    between atoms: _15  and  _17
REMARK    7  A    between atoms: _17  and  _18
REMARK    8  A    between atoms: _17  and  _20
REMARK    9  A    between atoms: _20  and  _21
REMARK   10  A    between atoms: _24  and  _26
REMARK   11  A    between atoms: _26  and  _27
REMARK   12  A    between atoms: _30  and  _32
REMARK   13  A    between atoms: _32  and  _33
REMARK   14  A    between atoms: _32  and  _35
REMARK   15  A    between atoms: _35  and  _36
REMARK   16  A    between atoms: _39  and  _41
REMARK   17  A    between atoms: _41  and  _42
REMARK   18  A    between atoms: _44  and  _46
REMARK   19  A    between atoms: _46  and  _47
REMARK   20  A    between atoms: _46  and  _49
REMARK   21  A    between atoms: _49  and  _50
REMARK   22  A    between atoms: _52  and  _54
REMARK   23  A    between atoms: _54  and  _55
REMARK   24  A    between atoms: _54  and  _57
REMARK   25  A    between atoms: _57  and  _58
REMARK   26  A    between atoms: _63  and  _65
REMARK   27  A    between atoms: _65  and  _66
REMARK   28  A    between atoms: _65  and  _68
REMARK   29  A    between atoms: _68  and  _69
REMARK   30  A    between atoms: _74  and  _75
REMARK   31  A    between atoms: _77  and  _79
REMARK   32  A    between atoms: _79  and  _80
REMARK   33  A    between atoms: _79  and  _82
REMARK   34  A    between atoms: _82  and  _83
REMARK   35  A    between atoms: _83  and  _84
REMARK   36  A    between atoms: _84  and  _85
REMARK   37  A    between atoms: _94  and  _96
REMARK   38  A    between atoms: _96  and  _97
REMARK   39  A    between atoms: _96  and  _99
REMARK   40  A    between atoms: _99  and  _100
REMARK   41  A    between atoms: _104  and  _105
REMARK   42  A    between atoms: _111  and  _112
REMARK   43  A    between atoms: _117  and  _119
REMARK   44  A    between atoms: _119  and  _120
REMARK   45  A    between atoms: _119  and  _122
REMARK   46  A    between atoms: _122  and  _123
REMARK   47  A    between atoms: _126  and  _128
REMARK   48  A    between atoms: _128  and  _129
REMARK   49  A    between atoms: _132  and  _133
REMARK   50  A    between atoms: _138  and  _140
REMARK   51  A    between atoms: _140  and  _141
REMARK   52  A    between atoms: _140  and  _143
REMARK   53  A    between atoms: _143  and  _144
REMARK   54  A    between atoms: _144  and  _145
REMARK   55  A    between atoms: _150  and  _152
REMARK   56  A    between atoms: _152  and  _153
REMARK   57  A    between atoms: _152  and  _155
REMARK   58  A    between atoms: _155  and  _156
REMARK   59  A    between atoms: _156  and  _157
REMARK   60  A    between atoms: _163  and  _164
REMARK   61  A    between atoms: _169  and  _171
REMARK   62  A    between atoms: _171  and  _172
REMARK   63  A    between atoms: _171  and  _174
REMARK   64  A    between atoms: _174  and  _175
REMARK   65  A    between atoms: _178  and  _180
REMARK   66  A    between atoms: _180  and  _181
REMARK   67  A    between atoms: _180  and  _183
REMARK   68  A    between atoms: _183  and  _184
REMARK   69  A    between atoms: _189  and  _190
REMARK   70  A    between atoms: _192  and  _194
REMARK   71  A    between atoms: _194  and  _195
REMARK   72  A    between atoms: _194  and  _197
REMARK   73  A    between atoms: _197  and  _198
REMARK   74  A    between atoms: _201  and  _203
REMARK   75  A    between atoms: _203  and  _204
REMARK   76  A    between atoms: _203  and  _206
REMARK   77  A    between atoms: _206  and  _207
REMARK   78  A    between atoms: _212  and  _214
REMARK   79  A    between atoms: _214  and  _215
REMARK   80  A    between atoms: _218  and  _220
REMARK   81  A    between atoms: _220  and  _221
REMARK   82  A    between atoms: _220  and  _223
REMARK   83  A    between atoms: _223  and  _224
REMARK   84  A    between atoms: _227  and  _229
REMARK   85  A    between atoms: _229  and  _230
REMARK   86  A    between atoms: _229  and  _232
REMARK   87  A    between atoms: _232  and  _233
REMARK   88  A    between atoms: _236  and  _238
REMARK   89  A    between atoms: _238  and  _239
REMARK   90  A    between atoms: _238  and  _241
REMARK   91  A    between atoms: _241  and  _242
REMARK   92  A    between atoms: _245  and  _247
REMARK   93  A    between atoms: _247  and  _248
REMARK   94  A    between atoms: _247  and  _250
REMARK   95  A    between atoms: _250  and  _251
REMARK   96  A    between atoms: _251  and  _252
REMARK   97  A    between atoms: _257  and  _259
REMARK   98  A    between atoms: _259  and  _260
REMARK   99  A    between atoms: _259  and  _262
REMARK  100  A    between atoms: _262  and  _263
REMARK  101  A    between atoms: _263  and  _264
REMARK  102  A    between atoms: _264  and  _265
REMARK  103  A    between atoms: _274  and  _276
REMARK  104  A    between atoms: _276  and  _277
REMARK  105  A    between atoms: _276  and  _279
REMARK  106  A    between atoms: _279  and  _280
REMARK  107  A    between atoms: _280  and  _281
REMARK  108  A    between atoms: _284  and  _286
REMARK  109  A    between atoms: _286  and  _287
REMARK  110  A    between atoms: _286  and  _289
REMARK  111  A    between atoms: _289  and  _290
REMARK  112  A    between atoms: _293  and  _295
REMARK  113  A    between atoms: _295  and  _296
REMARK  114  A    between atoms: _295  and  _298
REMARK  115  A    between atoms: _298  and  _299
REMARK  116  A    between atoms: _299  and  _300
REMARK  117  A    between atoms: _300  and  _301
REMARK  118  A    between atoms: _310  and  _312
REMARK  119  A    between atoms: _312  and  _313
REMARK  120  A    between atoms: _312  and  _315
REMARK  121  A    between atoms: _315  and  _316
REMARK  122  A    between atoms: _316  and  _317
REMARK  123  A    between atoms: _317  and  _318
REMARK  124  A    between atoms: _318  and  _319
REMARK  125  A    between atoms: _323  and  _325
REMARK  126  A    between atoms: _325  and  _326
REMARK  127  A    between atoms: _329  and  _331
REMARK  128  A    between atoms: _331  and  _332
REMARK  129  A    between atoms: _331  and  _334
REMARK  130  A    between atoms: _334  and  _335
REMARK  131  A    between atoms: _335  and  _336
REMARK  132  A    between atoms: _339  and  _341
REMARK  133  A    between atoms: _341  and  _342
REMARK  134  A    between atoms: _341  and  _344
REMARK  135  A    between atoms: _344  and  _345
REMARK  136  A    between atoms: _345  and  _346
REMARK  137  A    between atoms: _346  and  _347
REMARK  138  A    between atoms: _356  and  _358
REMARK  139  A    between atoms: _358  and  _359
REMARK  140  A    between atoms: _358  and  _361
REMARK  141  A    between atoms: _361  and  _362
REMARK  142  A    between atoms: _372  and  _374
REMARK  143  A    between atoms: _374  and  _375
REMARK  144  A    between atoms: _378  and  _379
REMARK  145  A    between atoms: _384  and  _386
REMARK  146  A    between atoms: _386  and  _387
REMARK  147  A    between atoms: _386  and  _389
REMARK  148  A    between atoms: _389  and  _390
REMARK  149  A    between atoms: _390  and  _391
REMARK  150  A    between atoms: _391  and  _392
REMARK  151  A    between atoms: _401  and  _403
REMARK  152  A    between atoms: _403  and  _404
REMARK  153  A    between atoms: _403  and  _406
REMARK  154  A    between atoms: _406  and  _407
REMARK  155  A    between atoms: _410  and  _412
REMARK  156  A    between atoms: _412  and  _413
REMARK  157  A    between atoms: _412  and  _415
REMARK  158  A    between atoms: _415  and  _416
REMARK  159  A    between atoms: _419  and  _421
REMARK  160  A    between atoms: _421  and  _422
REMARK  161  A    between atoms: _421  and  _424
REMARK  162  A    between atoms: _424  and  _425
REMARK  163  A    between atoms: _428  and  _430
REMARK  164  A    between atoms: _430  and  _431
REMARK  165  A    between atoms: _430  and  _433
REMARK  166  A    between atoms: _433  and  _434
REMARK  167  A    between atoms: _437  and  _439
REMARK  168  A    between atoms: _439  and  _440
REMARK  169  A    between atoms: _439  and  _442
REMARK  170  A    between atoms: _442  and  _443
REMARK  171  A    between atoms: _446  and  _448
REMARK  172  A    between atoms: _448  and  _449
REMARK  173  A    between atoms: _448  and  _451
REMARK  174  A    between atoms: _451  and  _452
REMARK  175  A    between atoms: _452  and  _453
REMARK  176  A    between atoms: _455  and  _457
REMARK  177  A    between atoms: _457  and  _458
REMARK  178  A    between atoms: _457  and  _460
REMARK  179  A    between atoms: _460  and  _461
REMARK  180  A    between atoms: _464  and  _466
REMARK  181  A    between atoms: _466  and  _467
REMARK  182  A    between atoms: _466  and  _469
REMARK  183  A    between atoms: _469  and  _470
REMARK  184  A    between atoms: _476  and  _478
REMARK  185  A    between atoms: _478  and  _479
REMARK  186  A    between atoms: _478  and  _481
REMARK  187  A    between atoms: _481  and  _482
REMARK  188  A    between atoms: _485  and  _487
REMARK  189  A    between atoms: _487  and  _488
REMARK  190  A    between atoms: _487  and  _490
REMARK  191  A    between atoms: _490  and  _491
REMARK  192  A    between atoms: _494  and  _496
REMARK  193  A    between atoms: _496  and  _497
REMARK  194  A    between atoms: _496  and  _499
REMARK  195  A    between atoms: _499  and  _500
REMARK  196  A    between atoms: _500  and  _501
REMARK  197  A    between atoms: _504  and  _506
REMARK  198  A    between atoms: _506  and  _507
REMARK  199  A    between atoms: _506  and  _509
REMARK  200  A    between atoms: _509  and  _510
REMARK  201  A    between atoms: _510  and  _511
REMARK  202  A    between atoms: _511  and  _512
REMARK  203  A    between atoms: _521  and  _523
REMARK  204  A    between atoms: _523  and  _524
REMARK  205  A    between atoms: _523  and  _526
REMARK  206  A    between atoms: _526  and  _527
REMARK  207  A    between atoms: _530  and  _532
REMARK  208  A    between atoms: _532  and  _533
REMARK  209  A    between atoms: _532  and  _535
REMARK  210  A    between atoms: _535  and  _536
REMARK  211  A    between atoms: _539  and  _541
REMARK  212  A    between atoms: _541  and  _542
REMARK  213  A    between atoms: _541  and  _544
REMARK  214  A    between atoms: _548  and  _549
REMARK  215  A    between atoms: _554  and  _556
REMARK  216  A    between atoms: _556  and  _557
REMARK  217  A    between atoms: _556  and  _559
REMARK  218  A    between atoms: _559  and  _560
REMARK  219  A    between atoms: _565  and  _567
REMARK  220  A    between atoms: _567  and  _568
REMARK  221  A    between atoms: _567  and  _570
REMARK  222  A    between atoms: _570  and  _571
REMARK  223  A    between atoms: _576  and  _577
REMARK  224  A    between atoms: _579  and  _581
REMARK  225  A    between atoms: _581  and  _582
REMARK  226  A    between atoms: _581  and  _584
REMARK  227  A    between atoms: _584  and  _585
REMARK  228  A    between atoms: _588  and  _590
REMARK  229  A    between atoms: _590  and  _591
REMARK  230  A    between atoms: _590  and  _593
REMARK  231  A    between atoms: _593  and  _594
REMARK  232  A    between atoms: _594  and  _595
REMARK  233  A    between atoms: _595  and  _596
REMARK  234  A    between atoms: _605  and  _607
REMARK  235  A    between atoms: _607  and  _608
REMARK  236  A    between atoms: _610  and  _612
REMARK  237  A    between atoms: _612  and  _613
REMARK  238  A    between atoms: _612  and  _615
REMARK  239  A    between atoms: _615  and  _616
REMARK  240  A    between atoms: _622  and  _624
REMARK  241  A    between atoms: _624  and  _625
REMARK  242  A    between atoms: _624  and  _627
REMARK  243  A    between atoms: _627  and  _628
REMARK  244  A    between atoms: _628  and  _629
REMARK  245  A    between atoms: _631  and  _633
REMARK  246  A    between atoms: _633  and  _634
REMARK  247  A    between atoms: _633  and  _636
REMARK  248  A    between atoms: _636  and  _637
REMARK                            x       y       z     vdW  Elec       q    Type
REMARK                         _______ _______ _______ _____ _____    ______ ____
ROOT
ATOM      1  O   HOH     1       6.952  26.050  -0.698  0.00  0.00    +0.000 OA
ENDROOT
TORSDOF 0
REMARK  Name = ../refined-set-2016/4f7v/4f7v_pocket.pdb
REMARK  248 active torsions:
REMARK  status: ('A' for Active; 'I' for Inactive)
REMARK    1  A    between atoms: _1  and  _3
REMARK    2  A    between atoms: _3  and  _4
REMARK    3  A    between atoms: _3  and  _6
REMARK    4  A    between atoms: _6  and  _7
REMARK    5  A    between atoms: _12  and  _13
REMARK    6  A    between atoms: _15  and  _17
REMARK    7  A    between atoms: _17  and  _18
REMARK    8  A    between atoms: _17  and  _20
REMARK    9  A    between atoms: _20  and  _21
REMARK   10  A    between atoms: _24  and  _26
REMARK   11  A    between atoms: _26  and  _27
REMARK   12  A    between atoms: _30  and  _32
REMARK   13  A    between atoms: _32  and  _33
REMARK   14  A    between atoms: _32  and  _35
REMARK   15  A    between atoms: _35  and  _36
REMARK   16  A    between atoms: _39  and  _41
REMARK   17  A    between atoms: _41  and  _42
REMARK   18  A    between atoms: _44  and  _46
REMARK   19  A    between atoms: _46  and  _47
REMARK   20  A    between atoms: _46  and  _49
REMARK   21  A    between atoms: _49  and  _50
REMARK   22  A    between atoms: _52  and  _54
REMARK   23  A    between atoms: _54  and  _55
REMARK   24  A    between atoms: _54  and  _57
REMARK   25  A    between atoms: _57  and  _58
REMARK   26  A    between atoms: _63  and  _65
REMARK   27  A    between atoms: _65  and  _66
REMARK   28  A    between atoms: _65  and  _68
REMARK   29  A    between atoms: _68  and  _69
REMARK   30  A    between atoms: _74  and  _75
REMARK   31  A    between atoms: _77  and  _79
REMARK   32  A    between atoms: _79  and  _80
REMARK   33  A    between atoms: _79  and  _82
REMARK   34  A    between atoms: _82  and  _83
REMARK   35  A    between atoms: _83  and  _84
REMARK   36  A    between atoms: _84  and  _85
REMARK   37  A    between atoms: _94  and  _96
REMARK   38  A    between atoms: _96  and  _97
REMARK   39  A    between atoms: _96  and  _99
REMARK   40  A    between atoms: _99  and  _100
REMARK   41  A    between atoms: _104  and  _105
REMARK   42  A    between atoms: _111  and  _112
REMARK   43  A    between atoms: _117  and  _119
REMARK   44  A    between atoms: _119  and  _120
REMARK   45  A    between atoms: _119  and  _122
REMARK   46  A    between atoms: _122  and  _123
REMARK   47  A    between atoms: _126  and  _128
REMARK   48  A    between atoms: _128  and  _129
REMARK   49  A    between atoms: _132  and  _133
REMARK   50  A    between atoms: _138  and  _140
REMARK   51  A    between atoms: _140  and  _141
REMARK   52  A    between atoms: _140  and  _143
REMARK   53  A    between atoms: _143  and  _144
REMARK   54  A    between atoms: _144  and  _145
REMARK   55  A    between atoms: _150  and  _152
REMARK   56  A    between atoms: _152  and  _153
REMARK   57  A    between atoms: _152  and  _155
REMARK   58  A    between atoms: _155  and  _156
REMARK   59  A    between atoms: _156  and  _157
REMARK   60  A    between atoms: _163  and  _164
REMARK   61  A    between atoms: _169  and  _171
REMARK   62  A    between atoms: _171  and  _172
REMARK   63  A    between atoms: _171  and  _174
REMARK   64  A    between atoms: _174  and  _175
REMARK   65  A    between atoms: _178  and  _180
REMARK   66  A    between atoms: _180  and  _181
REMARK   67  A    between atoms: _180  and  _183
REMARK   68  A    between atoms: _183  and  _184
REMARK   69  A    between atoms: _189  and  _190
REMARK   70  A    between atoms: _192  and  _194
REMARK   71  A    between atoms: _194  and  _195
REMARK   72  A    between atoms: _194  and  _197
REMARK   73  A    between atoms: _197  and  _198
REMARK   74  A    between atoms: _201  and  _203
REMARK   75  A    between atoms: _203  and  _204
REMARK   76  A    between atoms: _203  and  _206
REMARK   77  A    between atoms: _206  and  _207
REMARK   78  A    between atoms: _212  and  _214
REMARK   79  A    between atoms: _214  and  _215
REMARK   80  A    between atoms: _218  and  _220
REMARK   81  A    between atoms: _220  and  _221
REMARK   82  A    between atoms: _220  and  _223
REMARK   83  A    between atoms: _223  and  _224
REMARK   84  A    between atoms: _227  and  _229
REMARK   85  A    between atoms: _229  and  _230
REMARK   86  A    between atoms: _229  and  _232
REMARK   87  A    between atoms: _232  and  _233
REMARK   88  A    between atoms: _236  and  _238
REMARK   89  A    between atoms: _238  and  _239
REMARK   90  A    between atoms: _238  and  _241
REMARK   91  A    between atoms: _241  and  _242
REMARK   92  A    between atoms: _245  and  _247
REMARK   93  A    between atoms: _247  and  _248
REMARK   94  A    between atoms: _247  and  _250
REMARK   95  A    between atoms: _250  and  _251
REMARK   96  A    between atoms: _251  and  _252
REMARK   97  A    between atoms: _257  and  _259
REMARK   98  A    between atoms: _259  and  _260
REMARK   99  A    between atoms: _259  and  _262
REMARK  100  A    between atoms: _262  and  _263
REMARK  101  A    between atoms: _263  and  _264
REMARK  102  A    between atoms: _264  and  _265
REMARK  103  A    between atoms: _274  and  _276
REMARK  104  A    between atoms: _276  and  _277
REMARK  105  A    between atoms: _276  and  _279
REMARK  106  A    between atoms: _279  and  _280
REMARK  107  A    between atoms: _280  and  _281
REMARK  108  A    between atoms: _284  and  _286
REMARK  109  A    between atoms: _286  and  _287
REMARK  110  A    between atoms: _286  and  _289
REMARK  111  A    between atoms: _289  and  _290
REMARK  112  A    between atoms: _293  and  _295
REMARK  113  A    between atoms: _295  and  _296
REMARK  114  A    between atoms: _295  and  _298
REMARK  115  A    between atoms: _298  and  _299
REMARK  116  A    between atoms: _299  and  _300
REMARK  117  A    between atoms: _300  and  _301
REMARK  118  A    between atoms: _310  and  _312
REMARK  119  A    between atoms: _312  and  _313
REMARK  120  A    between atoms: _312  and  _315
REMARK  121  A    between atoms: _315  and  _316
REMARK  122  A    between atoms: _316  and  _317
REMARK  123  A    between atoms: _317  and  _318
REMARK  124  A    between atoms: _318  and  _319
REMARK  125  A    between atoms: _323  and  _325
REMARK  126  A    between atoms: _325  and  _326
REMARK  127  A    between atoms: _329  and  _331
REMARK  128  A    between atoms: _331  and  _332
REMARK  129  A    between atoms: _331  and  _334
REMARK  130  A    between atoms: _334  and  _335
REMARK  131  A    between atoms: _335  and  _336
REMARK  132  A    between atoms: _339  and  _341
REMARK  133  A    between atoms: _341  and  _342
REMARK  134  A    between atoms: _341  and  _344
REMARK  135  A    between atoms: _344  and  _345
REMARK  136  A    between atoms: _345  and  _346
REMARK  137  A    between atoms: _346  and  _347
REMARK  138  A    between atoms: _356  and  _358
REMARK  139  A    between atoms: _358  and  _359
REMARK  140  A    between atoms: _358  and  _361
REMARK  141  A    between atoms: _361  and  _362
REMARK  142  A    between atoms: _372  and  _374
REMARK  143  A    between atoms: _374  and  _375
REMARK  144  A    between atoms: _378  and  _379
REMARK  145  A    between atoms: _384  and  _386
REMARK  146  A    between atoms: _386  and  _387
REMARK  147  A    between atoms: _386  and  _389
REMARK  148  A    between atoms: _389  and  _390
REMARK  149  A    between atoms: _390  and  _391
REMARK  150  A    between atoms: _391  and  _392
REMARK  151  A    between atoms: _401  and  _403
REMARK  152  A    between atoms: _403  and  _404
REMARK  153  A    between atoms: _403  and  _406
REMARK  154  A    between atoms: _406  and  _407
REMARK  155  A    between atoms: _410  and  _412
REMARK  156  A    between atoms: _412  and  _413
REMARK  157  A    between atoms: _412  and  _415
REMARK  158  A    between atoms: _415  and  _416
REMARK  159  A    between atoms: _419  and  _421
REMARK  160  A    between atoms: _421  and  _422
REMARK  161  A    between atoms: _421  and  _424
REMARK  162  A    between atoms: _424  and  _425
REMARK  163  A    between atoms: _428  and  _430
REMARK  164  A    between atoms: _430  and  _431
REMARK  165  A    between atoms: _430  and  _433
REMARK  166  A    between atoms: _433  and  _434
REMARK  167  A    between atoms: _437  and  _439
REMARK  168  A    between atoms: _439  and  _440
REMARK  169  A    between atoms: _439  and  _442
REMARK  170  A    between atoms: _442  and  _443
REMARK  171  A    between atoms: _446  and  _448
REMARK  172  A    between atoms: _448  and  _449
REMARK  173  A    between atoms: _448  and  _451
REMARK  174  A    between atoms: _451  and  _452
REMARK  175  A    between atoms: _452  and  _453
REMARK  176  A    between atoms: _455  and  _457
REMARK  177  A    between atoms: _457  and  _458
REMARK  178  A    between atoms: _457  and  _460
REMARK  179  A    between atoms: _460  and  _461
REMARK  180  A    between atoms: _464  and  _466
REMARK  181  A    between atoms: _466  and  _467
REMARK  182  A    between atoms: _466  and  _469
REMARK  183  A    between atoms: _469  and  _470
REMARK  184  A    between atoms: _476  and  _478
REMARK  185  A    between atoms: _478  and  _479
REMARK  186  A    between atoms: _478  and  _481
REMARK  187  A    between atoms: _481  and  _482
REMARK  188  A    between atoms: _485  and  _487
REMARK  189  A    between atoms: _487  and  _488
REMARK  190  A    between atoms: _487  and  _490
REMARK  191  A    between atoms: _490  and  _491
REMARK  192  A    between atoms: _494  and  _496
REMARK  193  A    between atoms: _496  and  _497
REMARK  194  A    between atoms: _496  and  _499
REMARK  195  A    between atoms: _499  and  _500
REMARK  196  A    between atoms: _500  and  _501
REMARK  197  A    between atoms: _504  and  _506
REMARK  198  A    between atoms: _506  and  _507
REMARK  199  A    between atoms: _506  and  _509
REMARK  200  A    between atoms: _509  and  _510
REMARK  201  A    between atoms: _510  and  _511
REMARK  202  A    between atoms: _511  and  _512
REMARK  203  A    between atoms: _521  and  _523
REMARK  204  A    between atoms: _523  and  _524
REMARK  205  A    between atoms: _523  and  _526
REMARK  206  A    between atoms: _526  and  _527
REMARK  207  A    between atoms: _530  and  _532
REMARK  208  A    between atoms: _532  and  _533
REMARK  209  A    between atoms: _532  and  _535
REMARK  210  A    between atoms: _535  and  _536
REMARK  211  A    between atoms: _539  and  _541
REMARK  212  A    between atoms: _541  and  _542
REMARK  213  A    between atoms: _541  and  _544
REMARK  214  A    between atoms: _548  and  _549
REMARK  215  A    between atoms: _554  and  _556
REMARK  216  A    between atoms: _556  and  _557
REMARK  217  A    between atoms: _556  and  _559
REMARK  218  A    between atoms: _559  and  _560
REMARK  219  A    between atoms: _565  and  _567
REMARK  220  A    between atoms: _567  and  _568
REMARK  221  A    between atoms: _567  and  _570
REMARK  222  A    between atoms: _570  and  _571
REMARK  223  A    between atoms: _576  and  _577
REMARK  224  A    between atoms: _579  and  _581
REMARK  225  A    between atoms: _581  and  _582
REMARK  226  A    between atoms: _581  and  _584
REMARK  227  A    between atoms: _584  and  _585
REMARK  228  A    between atoms: _588  and  _590
REMARK  229  A    between atoms: _590  and  _591
REMARK  230  A    between atoms: _590  and  _593
REMARK  231  A    between atoms: _593  and  _594
REMARK  232  A    between atoms: _594  and  _595
REMARK  233  A    between atoms: _595  and  _596
REMARK  234  A    between atoms: _605  and  _607
REMARK  235  A    between atoms: _607  and  _608
REMARK  236  A    between atoms: _610  and  _612
REMARK  237  A    between atoms: _612  and  _613
REMARK  238  A    between atoms: _612  and  _615
REMARK  239  A    between atoms: _615  and  _616
REMARK  240  A    between atoms: _622  and  _624
REMARK  241  A    between atoms: _624  and  _625
REMARK  242  A    between atoms: _624  and  _627
REMARK  243  A    between atoms: _627  and  _628
REMARK  244  A    between atoms: _628  and  _629
REMARK  245  A    between atoms: _631  and  _633
REMARK  246  A    between atoms: _633  and  _634
REMARK  247  A    between atoms: _633  and  _636
REMARK  248  A    between atoms: _636  and  _637
REMARK                            x       y       z     vdW  Elec       q    Type
REMARK                         _______ _______ _______ _____ _____    ______ ____
ROOT
ATOM      1  O   HOH     1       8.666  27.888  -0.447  0.00  0.00    +0.000 OA
ENDROOT
TORSDOF 0
REMARK  Name = ../refined-set-2016/4f7v/4f7v_pocket.pdb
REMARK  248 active torsions:
REMARK  status: ('A' for Active; 'I' for Inactive)
REMARK    1  A    between atoms: _1  and  _3
REMARK    2  A    between atoms: _3  and  _4
REMARK    3  A    between atoms: _3  and  _6
REMARK    4  A    between atoms: _6  and  _7
REMARK    5  A    between atoms: _12  and  _13
REMARK    6  A    between atoms: _15  and  _17
REMARK    7  A    between atoms: _17  and  _18
REMARK    8  A    between atoms: _17  and  _20
REMARK    9  A    between atoms: _20  and  _21
REMARK   10  A    between atoms: _24  and  _26
REMARK   11  A    between atoms: _26  and  _27
REMARK   12  A    between atoms: _30  and  _32
REMARK   13  A    between atoms: _32  and  _33
REMARK   14  A    between atoms: _32  and  _35
REMARK   15  A    between atoms: _35  and  _36
REMARK   16  A    between atoms: _39  and  _41
REMARK   17  A    between atoms: _41  and  _42
REMARK   18  A    between atoms: _44  and  _46
REMARK   19  A    between atoms: _46  and  _47
REMARK   20  A    between atoms: _46  and  _49
REMARK   21  A    between atoms: _49  and  _50
REMARK   22  A    between atoms: _52  and  _54
REMARK   23  A    between atoms: _54  and  _55
REMARK   24  A    between atoms: _54  and  _57
REMARK   25  A    between atoms: _57  and  _58
REMARK   26  A    between atoms: _63  and  _65
REMARK   27  A    between atoms: _65  and  _66
REMARK   28  A    between atoms: _65  and  _68
REMARK   29  A    between atoms: _68  and  _69
REMARK   30  A    between atoms: _74  and  _75
REMARK   31  A    between atoms: _77  and  _79
REMARK   32  A    between atoms: _79  and  _80
REMARK   33  A    between atoms: _79  and  _82
REMARK   34  A    between atoms: _82  and  _83
REMARK   35  A    between atoms: _83  and  _84
REMARK   36  A    between atoms: _84  and  _85
REMARK   37  A    between atoms: _94  and  _96
REMARK   38  A    between atoms: _96  and  _97
REMARK   39  A    between atoms: _96  and  _99
REMARK   40  A    between atoms: _99  and  _100
REMARK   41  A    between atoms: _104  and  _105
REMARK   42  A    between atoms: _111  and  _112
REMARK   43  A    between atoms: _117  and  _119
REMARK   44  A    between atoms: _119  and  _120
REMARK   45  A    between atoms: _119  and  _122
REMARK   46  A    between atoms: _122  and  _123
REMARK   47  A    between atoms: _126  and  _128
REMARK   48  A    between atoms: _128  and  _129
REMARK   49  A    between atoms: _132  and  _133
REMARK   50  A    between atoms: _138  and  _140
REMARK   51  A    between atoms: _140  and  _141
REMARK   52  A    between atoms: _140  and  _143
REMARK   53  A    between atoms: _143  and  _144
REMARK   54  A    between atoms: _144  and  _145
REMARK   55  A    between atoms: _150  and  _152
REMARK   56  A    between atoms: _152  and  _153
REMARK   57  A    between atoms: _152  and  _155
REMARK   58  A    between atoms: _155  and  _156
REMARK   59  A    between atoms: _156  and  _157
REMARK   60  A    between atoms: _163  and  _164
REMARK   61  A    between atoms: _169  and  _171
REMARK   62  A    between atoms: _171  and  _172
REMARK   63  A    between atoms: _171  and  _174
REMARK   64  A    between atoms: _174  and  _175
REMARK   65  A    between atoms: _178  and  _180
REMARK   66  A    between atoms: _180  and  _181
REMARK   67  A    between atoms: _180  and  _183
REMARK   68  A    between atoms: _183  and  _184
REMARK   69  A    between atoms: _189  and  _190
REMARK   70  A    between atoms: _192  and  _194
REMARK   71  A    between atoms: _194  and  _195
REMARK   72  A    between atoms: _194  and  _197
REMARK   73  A    between atoms: _197  and  _198
REMARK   74  A    between atoms: _201  and  _203
REMARK   75  A    between atoms: _203  and  _204
REMARK   76  A    between atoms: _203  and  _206
REMARK   77  A    between atoms: _206  and  _207
REMARK   78  A    between atoms: _212  and  _214
REMARK   79  A    between atoms: _214  and  _215
REMARK   80  A    between atoms: _218  and  _220
REMARK   81  A    between atoms: _220  and  _221
REMARK   82  A    between atoms: _220  and  _223
REMARK   83  A    between atoms: _223  and  _224
REMARK   84  A    between atoms: _227  and  _229
REMARK   85  A    between atoms: _229  and  _230
REMARK   86  A    between atoms: _229  and  _232
REMARK   87  A    between atoms: _232  and  _233
REMARK   88  A    between atoms: _236  and  _238
REMARK   89  A    between atoms: _238  and  _239
REMARK   90  A    between atoms: _238  and  _241
REMARK   91  A    between atoms: _241  and  _242
REMARK   92  A    between atoms: _245  and  _247
REMARK   93  A    between atoms: _247  and  _248
REMARK   94  A    between atoms: _247  and  _250
REMARK   95  A    between atoms: _250  and  _251
REMARK   96  A    between atoms: _251  and  _252
REMARK   97  A    between atoms: _257  and  _259
REMARK   98  A    between atoms: _259  and  _260
REMARK   99  A    between atoms: _259  and  _262
REMARK  100  A    between atoms: _262  and  _263
REMARK  101  A    between atoms: _263  and  _264
REMARK  102  A    between atoms: _264  and  _265
REMARK  103  A    between atoms: _274  and  _276
REMARK  104  A    between atoms: _276  and  _277
REMARK  105  A    between atoms: _276  and  _279
REMARK  106  A    between atoms: _279  and  _280
REMARK  107  A    between atoms: _280  and  _281
REMARK  108  A    between atoms: _284  and  _286
REMARK  109  A    between atoms: _286  and  _287
REMARK  110  A    between atoms: _286  and  _289
REMARK  111  A    between atoms: _289  and  _290
REMARK  112  A    between atoms: _293  and  _295
REMARK  113  A    between atoms: _295  and  _296
REMARK  114  A    between atoms: _295  and  _298
REMARK  115  A    between atoms: _298  and  _299
REMARK  116  A    between atoms: _299  and  _300
REMARK  117  A    between atoms: _300  and  _301
REMARK  118  A    between atoms: _310  and  _312
REMARK  119  A    between atoms: _312  and  _313
REMARK  120  A    between atoms: _312  and  _315
REMARK  121  A    between atoms: _315  and  _316
REMARK  122  A    between atoms: _316  and  _317
REMARK  123  A    between atoms: _317  and  _318
REMARK  124  A    between atoms: _318  and  _319
REMARK  125  A    between atoms: _323  and  _325
REMARK  126  A    between atoms: _325  and  _326
REMARK  127  A    between atoms: _329  and  _331
REMARK  128  A    between atoms: _331  and  _332
REMARK  129  A    between atoms: _331  and  _334
REMARK  130  A    between atoms: _334  and  _335
REMARK  131  A    between atoms: _335  and  _336
REMARK  132  A    between atoms: _339  and  _341
REMARK  133  A    between atoms: _341  and  _342
REMARK  134  A    between atoms: _341  and  _344
REMARK  135  A    between atoms: _344  and  _345
REMARK  136  A    between atoms: _345  and  _346
REMARK  137  A    between atoms: _346  and  _347
REMARK  138  A    between atoms: _356  and  _358
REMARK  139  A    between atoms: _358  and  _359
REMARK  140  A    between atoms: _358  and  _361
REMARK  141  A    between atoms: _361  and  _362
REMARK  142  A    between atoms: _372  and  _374
REMARK  143  A    between atoms: _374  and  _375
REMARK  144  A    between atoms: _378  and  _379
REMARK  145  A    between atoms: _384  and  _386
REMARK  146  A    between atoms: _386  and  _387
REMARK  147  A    between atoms: _386  and  _389
REMARK  148  A    between atoms: _389  and  _390
REMARK  149  A    between atoms: _390  and  _391
REMARK  150  A    between atoms: _391  and  _392
REMARK  151  A    between atoms: _401  and  _403
REMARK  152  A    between atoms: _403  and  _404
REMARK  153  A    between atoms: _403  and  _406
REMARK  154  A    between atoms: _406  and  _407
REMARK  155  A    between atoms: _410  and  _412
REMARK  156  A    between atoms: _412  and  _413
REMARK  157  A    between atoms: _412  and  _415
REMARK  158  A    between atoms: _415  and  _416
REMARK  159  A    between atoms: _419  and  _421
REMARK  160  A    between atoms: _421  and  _422
REMARK  161  A    between atoms: _421  and  _424
REMARK  162  A    between atoms: _424  and  _425
REMARK  163  A    between atoms: _428  and  _430
REMARK  164  A    between atoms: _430  and  _431
REMARK  165  A    between atoms: _430  and  _433
REMARK  166  A    between atoms: _433  and  _434
REMARK  167  A    between atoms: _437  and  _439
REMARK  168  A    between atoms: _439  and  _440
REMARK  169  A    between atoms: _439  and  _442
REMARK  170  A    between atoms: _442  and  _443
REMARK  171  A    between atoms: _446  and  _448
REMARK  172  A    between atoms: _448  and  _449
REMARK  173  A    between atoms: _448  and  _451
REMARK  174  A    between atoms: _451  and  _452
REMARK  175  A    between atoms: _452  and  _453
REMARK  176  A    between atoms: _455  and  _457
REMARK  177  A    between atoms: _457  and  _458
REMARK  178  A    between atoms: _457  and  _460
REMARK  179  A    between atoms: _460  and  _461
REMARK  180  A    between atoms: _464  and  _466
REMARK  181  A    between atoms: _466  and  _467
REMARK  182  A    between atoms: _466  and  _469
REMARK  183  A    between atoms: _469  and  _470
REMARK  184  A    between atoms: _476  and  _478
REMARK  185  A    between atoms: _478  and  _479
REMARK  186  A    between atoms: _478  and  _481
REMARK  187  A    between atoms: _481  and  _482
REMARK  188  A    between atoms: _485  and  _487
REMARK  189  A    between atoms: _487  and  _488
REMARK  190  A    between atoms: _487  and  _490
REMARK  191  A    between atoms: _490  and  _491
REMARK  192  A    between atoms: _494  and  _496
REMARK  193  A    between atoms: _496  and  _497
REMARK  194  A    between atoms: _496  and  _499
REMARK  195  A    between atoms: _499  and  _500
REMARK  196  A    between atoms: _500  and  _501
REMARK  197  A    between atoms: _504  and  _506
REMARK  198  A    between atoms: _506  and  _507
REMARK  199  A    between atoms: _506  and  _509
REMARK  200  A    between atoms: _509  and  _510
REMARK  201  A    between atoms: _510  and  _511
REMARK  202  A    between atoms: _511  and  _512
REMARK  203  A    between atoms: _521  and  _523
REMARK  204  A    between atoms: _523  and  _524
REMARK  205  A    between atoms: _523  and  _526
REMARK  206  A    between atoms: _526  and  _527
REMARK  207  A    between atoms: _530  and  _532
REMARK  208  A    between atoms: _532  and  _533
REMARK  209  A    between atoms: _532  and  _535
REMARK  210  A    between atoms: _535  and  _536
REMARK  211  A    between atoms: _539  and  _541
REMARK  212  A    between atoms: _541  and  _542
REMARK  213  A    between atoms: _541  and  _544
REMARK  214  A    between atoms: _548  and  _549
REMARK  215  A    between atoms: _554  and  _556
REMARK  216  A    between atoms: _556  and  _557
REMARK  217  A    between atoms: _556  and  _559
REMARK  218  A    between atoms: _559  and  _560
REMARK  219  A    between atoms: _565  and  _567
REMARK  220  A    between atoms: _567  and  _568
REMARK  221  A    between atoms: _567  and  _570
REMARK  222  A    between atoms: _570  and  _571
REMARK  223  A    between atoms: _576  and  _577
REMARK  224  A    between atoms: _579  and  _581
REMARK  225  A    between atoms: _581  and  _582
REMARK  226  A    between atoms: _581  and  _584
REMARK  227  A    between atoms: _584  and  _585
REMARK  228  A    between atoms: _588  and  _590
REMARK  229  A    between atoms: _590  and  _591
REMARK  230  A    between atoms: _590  and  _593
REMARK  231  A    between atoms: _593  and  _594
REMARK  232  A    between atoms: _594  and  _595
REMARK  233  A    between atoms: _595  and  _596
REMARK  234  A    between atoms: _605  and  _607
REMARK  235  A    between atoms: _607  and  _608
REMARK  236  A    between atoms: _610  and  _612
REMARK  237  A    between atoms: _612  and  _613
REMARK  238  A    between atoms: _612  and  _615
REMARK  239  A    between atoms: _615  and  _616
REMARK  240  A    between atoms: _622  and  _624
REMARK  241  A    between atoms: _624  and  _625
REMARK  242  A    between atoms: _624  and  _627
REMARK  243  A    between atoms: _627  and  _628
REMARK  244  A    between atoms: _628  and  _629
REMARK  245  A    between atoms: _631  and  _633
REMARK  246  A    between atoms: _633  and  _634
REMARK  247  A    between atoms: _633  and  _636
REMARK  248  A    between atoms: _636  and  _637
REMARK                            x       y       z     vdW  Elec       q    Type
REMARK                         _______ _______ _______ _____ _____    ______ ____
ROOT
ATOM      1  O   HOH     1       9.722  20.677   8.475  0.00  0.00    +0.000 OA
ENDROOT
TORSDOF 0
REMARK  Name = ../refined-set-2016/4f7v/4f7v_pocket.pdb
REMARK  248 active torsions:
REMARK  status: ('A' for Active; 'I' for Inactive)
REMARK    1  A    between atoms: _1  and  _3
REMARK    2  A    between atoms: _3  and  _4
REMARK    3  A    between atoms: _3  and  _6
REMARK    4  A    between atoms: _6  and  _7
REMARK    5  A    between atoms: _12  and  _13
REMARK    6  A    between atoms: _15  and  _17
REMARK    7  A    between atoms: _17  and  _18
REMARK    8  A    between atoms: _17  and  _20
REMARK    9  A    between atoms: _20  and  _21
REMARK   10  A    between atoms: _24  and  _26
REMARK   11  A    between atoms: _26  and  _27
REMARK   12  A    between atoms: _30  and  _32
REMARK   13  A    between atoms: _32  and  _33
REMARK   14  A    between atoms: _32  and  _35
REMARK   15  A    between atoms: _35  and  _36
REMARK   16  A    between atoms: _39  and  _41
REMARK   17  A    between atoms: _41  and  _42
REMARK   18  A    between atoms: _44  and  _46
REMARK   19  A    between atoms: _46  and  _47
REMARK   20  A    between atoms: _46  and  _49
REMARK   21  A    between atoms: _49  and  _50
REMARK   22  A    between atoms: _52  and  _54
REMARK   23  A    between atoms: _54  and  _55
REMARK   24  A    between atoms: _54  and  _57
REMARK   25  A    between atoms: _57  and  _58
REMARK   26  A    between atoms: _63  and  _65
REMARK   27  A    between atoms: _65  and  _66
REMARK   28  A    between atoms: _65  and  _68
REMARK   29  A    between atoms: _68  and  _69
REMARK   30  A    between atoms: _74  and  _75
REMARK   31  A    between atoms: _77  and  _79
REMARK   32  A    between atoms: _79  and  _80
REMARK   33  A    between atoms: _79  and  _82
REMARK   34  A    between atoms: _82  and  _83
REMARK   35  A    between atoms: _83  and  _84
REMARK   36  A    between atoms: _84  and  _85
REMARK   37  A    between atoms: _94  and  _96
REMARK   38  A    between atoms: _96  and  _97
REMARK   39  A    between atoms: _96  and  _99
REMARK   40  A    between atoms: _99  and  _100
REMARK   41  A    between atoms: _104  and  _105
REMARK   42  A    between atoms: _111  and  _112
REMARK   43  A    between atoms: _117  and  _119
REMARK   44  A    between atoms: _119  and  _120
REMARK   45  A    between atoms: _119  and  _122
REMARK   46  A    between atoms: _122  and  _123
REMARK   47  A    between atoms: _126  and  _128
REMARK   48  A    between atoms: _128  and  _129
REMARK   49  A    between atoms: _132  and  _133
REMARK   50  A    between atoms: _138  and  _140
REMARK   51  A    between atoms: _140  and  _141
REMARK   52  A    between atoms: _140  and  _143
REMARK   53  A    between atoms: _143  and  _144
REMARK   54  A    between atoms: _144  and  _145
REMARK   55  A    between atoms: _150  and  _152
REMARK   56  A    between atoms: _152  and  _153
REMARK   57  A    between atoms: _152  and  _155
REMARK   58  A    between atoms: _155  and  _156
REMARK   59  A    between atoms: _156  and  _157
REMARK   60  A    between atoms: _163  and  _164
REMARK   61  A    between atoms: _169  and  _171
REMARK   62  A    between atoms: _171  and  _172
REMARK   63  A    between atoms: _171  and  _174
REMARK   64  A    between atoms: _174  and  _175
REMARK   65  A    between atoms: _178  and  _180
REMARK   66  A    between atoms: _180  and  _181
REMARK   67  A    between atoms: _180  and  _183
REMARK   68  A    between atoms: _183  and  _184
REMARK   69  A    between atoms: _189  and  _190
REMARK   70  A    between atoms: _192  and  _194
REMARK   71  A    between atoms: _194  and  _195
REMARK   72  A    between atoms: _194  and  _197
REMARK   73  A    between atoms: _197  and  _198
REMARK   74  A    between atoms: _201  and  _203
REMARK   75  A    between atoms: _203  and  _204
REMARK   76  A    between atoms: _203  and  _206
REMARK   77  A    between atoms: _206  and  _207
REMARK   78  A    between atoms: _212  and  _214
REMARK   79  A    between atoms: _214  and  _215
REMARK   80  A    between atoms: _218  and  _220
REMARK   81  A    between atoms: _220  and  _221
REMARK   82  A    between atoms: _220  and  _223
REMARK   83  A    between atoms: _223  and  _224
REMARK   84  A    between atoms: _227  and  _229
REMARK   85  A    between atoms: _229  and  _230
REMARK   86  A    between atoms: _229  and  _232
REMARK   87  A    between atoms: _232  and  _233
REMARK   88  A    between atoms: _236  and  _238
REMARK   89  A    between atoms: _238  and  _239
REMARK   90  A    between atoms: _238  and  _241
REMARK   91  A    between atoms: _241  and  _242
REMARK   92  A    between atoms: _245  and  _247
REMARK   93  A    between atoms: _247  and  _248
REMARK   94  A    between atoms: _247  and  _250
REMARK   95  A    between atoms: _250  and  _251
REMARK   96  A    between atoms: _251  and  _252
REMARK   97  A    between atoms: _257  and  _259
REMARK   98  A    between atoms: _259  and  _260
REMARK   99  A    between atoms: _259  and  _262
REMARK  100  A    between atoms: _262  and  _263
REMARK  101  A    between atoms: _263  and  _264
REMARK  102  A    between atoms: _264  and  _265
REMARK  103  A    between atoms: _274  and  _276
REMARK  104  A    between atoms: _276  and  _277
REMARK  105  A    between atoms: _276  and  _279
REMARK  106  A    between atoms: _279  and  _280
REMARK  107  A    between atoms: _280  and  _281
REMARK  108  A    between atoms: _284  and  _286
REMARK  109  A    between atoms: _286  and  _287
REMARK  110  A    between atoms: _286  and  _289
REMARK  111  A    between atoms: _289  and  _290
REMARK  112  A    between atoms: _293  and  _295
REMARK  113  A    between atoms: _295  and  _296
REMARK  114  A    between atoms: _295  and  _298
REMARK  115  A    between atoms: _298  and  _299
REMARK  116  A    between atoms: _299  and  _300
REMARK  117  A    between atoms: _300  and  _301
REMARK  118  A    between atoms: _310  and  _312
REMARK  119  A    between atoms: _312  and  _313
REMARK  120  A    between atoms: _312  and  _315
REMARK  121  A    between atoms: _315  and  _316
REMARK  122  A    between atoms: _316  and  _317
REMARK  123  A    between atoms: _317  and  _318
REMARK  124  A    between atoms: _318  and  _319
REMARK  125  A    between atoms: _323  and  _325
REMARK  126  A    between atoms: _325  and  _326
REMARK  127  A    between atoms: _329  and  _331
REMARK  128  A    between atoms: _331  and  _332
REMARK  129  A    between atoms: _331  and  _334
REMARK  130  A    between atoms: _334  and  _335
REMARK  131  A    between atoms: _335  and  _336
REMARK  132  A    between atoms: _339  and  _341
REMARK  133  A    between atoms: _341  and  _342
REMARK  134  A    between atoms: _341  and  _344
REMARK  135  A    between atoms: _344  and  _345
REMARK  136  A    between atoms: _345  and  _346
REMARK  137  A    between atoms: _346  and  _347
REMARK  138  A    between atoms: _356  and  _358
REMARK  139  A    between atoms: _358  and  _359
REMARK  140  A    between atoms: _358  and  _361
REMARK  141  A    between atoms: _361  and  _362
REMARK  142  A    between atoms: _372  and  _374
REMARK  143  A    between atoms: _374  and  _375
REMARK  144  A    between atoms: _378  and  _379
REMARK  145  A    between atoms: _384  and  _386
REMARK  146  A    between atoms: _386  and  _387
REMARK  147  A    between atoms: _386  and  _389
REMARK  148  A    between atoms: _389  and  _390
REMARK  149  A    between atoms: _390  and  _391
REMARK  150  A    between atoms: _391  and  _392
REMARK  151  A    between atoms: _401  and  _403
REMARK  152  A    between atoms: _403  and  _404
REMARK  153  A    between atoms: _403  and  _406
REMARK  154  A    between atoms: _406  and  _407
REMARK  155  A    between atoms: _410  and  _412
REMARK  156  A    between atoms: _412  and  _413
REMARK  157  A    between atoms: _412  and  _415
REMARK  158  A    between atoms: _415  and  _416
REMARK  159  A    between atoms: _419  and  _421
REMARK  160  A    between atoms: _421  and  _422
REMARK  161  A    between atoms: _421  and  _424
REMARK  162  A    between atoms: _424  and  _425
REMARK  163  A    between atoms: _428  and  _430
REMARK  164  A    between atoms: _430  and  _431
REMARK  165  A    between atoms: _430  and  _433
REMARK  166  A    between atoms: _433  and  _434
REMARK  167  A    between atoms: _437  and  _439
REMARK  168  A    between atoms: _439  and  _440
REMARK  169  A    between atoms: _439  and  _442
REMARK  170  A    between atoms: _442  and  _443
REMARK  171  A    between atoms: _446  and  _448
REMARK  172  A    between atoms: _448  and  _449
REMARK  173  A    between atoms: _448  and  _451
REMARK  174  A    between atoms: _451  and  _452
REMARK  175  A    between atoms: _452  and  _453
REMARK  176  A    between atoms: _455  and  _457
REMARK  177  A    between atoms: _457  and  _458
REMARK  178  A    between atoms: _457  and  _460
REMARK  179  A    between atoms: _460  and  _461
REMARK  180  A    between atoms: _464  and  _466
REMARK  181  A    between atoms: _466  and  _467
REMARK  182  A    between atoms: _466  and  _469
REMARK  183  A    between atoms: _469  and  _470
REMARK  184  A    between atoms: _476  and  _478
REMARK  185  A    between atoms: _478  and  _479
REMARK  186  A    between atoms: _478  and  _481
REMARK  187  A    between atoms: _481  and  _482
REMARK  188  A    between atoms: _485  and  _487
REMARK  189  A    between atoms: _487  and  _488
REMARK  190  A    between atoms: _487  and  _490
REMARK  191  A    between atoms: _490  and  _491
REMARK  192  A    between atoms: _494  and  _496
REMARK  193  A    between atoms: _496  and  _497
REMARK  194  A    between atoms: _496  and  _499
REMARK  195  A    between atoms: _499  and  _500
REMARK  196  A    between atoms: _500  and  _501
REMARK  197  A    between atoms: _504  and  _506
REMARK  198  A    between atoms: _506  and  _507
REMARK  199  A    between atoms: _506  and  _509
REMARK  200  A    between atoms: _509  and  _510
REMARK  201  A    between atoms: _510  and  _511
REMARK  202  A    between atoms: _511  and  _512
REMARK  203  A    between atoms: _521  and  _523
REMARK  204  A    between atoms: _523  and  _524
REMARK  205  A    between atoms: _523  and  _526
REMARK  206  A    between atoms: _526  and  _527
REMARK  207  A    between atoms: _530  and  _532
REMARK  208  A    between atoms: _532  and  _533
REMARK  209  A    between atoms: _532  and  _535
REMARK  210  A    between atoms: _535  and  _536
REMARK  211  A    between atoms: _539  and  _541
REMARK  212  A    between atoms: _541  and  _542
REMARK  213  A    between atoms: _541  and  _544
REMARK  214  A    between atoms: _548  and  _549
REMARK  215  A    between atoms: _554  and  _556
REMARK  216  A    between atoms: _556  and  _557
REMARK  217  A    between atoms: _556  and  _559
REMARK  218  A    between atoms: _559  and  _560
REMARK  219  A    between atoms: _565  and  _567
REMARK  220  A    between atoms: _567  and  _568
REMARK  221  A    between atoms: _567  and  _570
REMARK  222  A    between atoms: _570  and  _571
REMARK  223  A    between atoms: _576  and  _577
REMARK  224  A    between atoms: _579  and  _581
REMARK  225  A    between atoms: _581  and  _582
REMARK  226  A    between atoms: _581  and  _584
REMARK  227  A    between atoms: _584  and  _585
REMARK  228  A    between atoms: _588  and  _590
REMARK  229  A    between atoms: _590  and  _591
REMARK  230  A    between atoms: _590  and  _593
REMARK  231  A    between atoms: _593  and  _594
REMARK  232  A    between atoms: _594  and  _595
REMARK  233  A    between atoms: _595  and  _596
REMARK  234  A    between atoms: _605  and  _607
REMARK  235  A    between atoms: _607  and  _608
REMARK  236  A    between atoms: _610  and  _612
REMARK  237  A    between atoms: _612  and  _613
REMARK  238  A    between atoms: _612  and  _615
REMARK  239  A    between atoms: _615  and  _616
REMARK  240  A    between atoms: _622  and  _624
REMARK  241  A    between atoms: _624  and  _625
REMARK  242  A    between atoms: _624  and  _627
REMARK  243  A    between atoms: _627  and  _628
REMARK  244  A    between atoms: _628  and  _629
REMARK  245  A    between atoms: _631  and  _633
REMARK  246  A    between atoms: _633  and  _634
REMARK  247  A    between atoms: _633  and  _636
REMARK  248  A    between atoms: _636  and  _637
REMARK                            x       y       z     vdW  Elec       q    Type
REMARK                         _______ _______ _______ _____ _____    ______ ____
ROOT
ATOM      1  O   HOH     1       6.076  21.384   6.985  0.00  0.00    +0.000 OA
ENDROOT
TORSDOF 0
REMARK  Name = ../refined-set-2016/4f7v/4f7v_pocket.pdb
REMARK  248 active torsions:
REMARK  status: ('A' for Active; 'I' for Inactive)
REMARK    1  A    between atoms: _1  and  _3
REMARK    2  A    between atoms: _3  and  _4
REMARK    3  A    between atoms: _3  and  _6
REMARK    4  A    between atoms: _6  and  _7
REMARK    5  A    between atoms: _12  and  _13
REMARK    6  A    between atoms: _15  and  _17
REMARK    7  A    between atoms: _17  and  _18
REMARK    8  A    between atoms: _17  and  _20
REMARK    9  A    between atoms: _20  and  _21
REMARK   10  A    between atoms: _24  and  _26
REMARK   11  A    between atoms: _26  and  _27
REMARK   12  A    between atoms: _30  and  _32
REMARK   13  A    between atoms: _32  and  _33
REMARK   14  A    between atoms: _32  and  _35
REMARK   15  A    between atoms: _35  and  _36
REMARK   16  A    between atoms: _39  and  _41
REMARK   17  A    between atoms: _41  and  _42
REMARK   18  A    between atoms: _44  and  _46
REMARK   19  A    between atoms: _46  and  _47
REMARK   20  A    between atoms: _46  and  _49
REMARK   21  A    between atoms: _49  and  _50
REMARK   22  A    between atoms: _52  and  _54
REMARK   23  A    between atoms: _54  and  _55
REMARK   24  A    between atoms: _54  and  _57
REMARK   25  A    between atoms: _57  and  _58
REMARK   26  A    between atoms: _63  and  _65
REMARK   27  A    between atoms: _65  and  _66
REMARK   28  A    between atoms: _65  and  _68
REMARK   29  A    between atoms: _68  and  _69
REMARK   30  A    between atoms: _74  and  _75
REMARK   31  A    between atoms: _77  and  _79
REMARK   32  A    between atoms: _79  and  _80
REMARK   33  A    between atoms: _79  and  _82
REMARK   34  A    between atoms: _82  and  _83
REMARK   35  A    between atoms: _83  and  _84
REMARK   36  A    between atoms: _84  and  _85
REMARK   37  A    between atoms: _94  and  _96
REMARK   38  A    between atoms: _96  and  _97
REMARK   39  A    between atoms: _96  and  _99
REMARK   40  A    between atoms: _99  and  _100
REMARK   41  A    between atoms: _104  and  _105
REMARK   42  A    between atoms: _111  and  _112
REMARK   43  A    between atoms: _117  and  _119
REMARK   44  A    between atoms: _119  and  _120
REMARK   45  A    between atoms: _119  and  _122
REMARK   46  A    between atoms: _122  and  _123
REMARK   47  A    between atoms: _126  and  _128
REMARK   48  A    between atoms: _128  and  _129
REMARK   49  A    between atoms: _132  and  _133
REMARK   50  A    between atoms: _138  and  _140
REMARK   51  A    between atoms: _140  and  _141
REMARK   52  A    between atoms: _140  and  _143
REMARK   53  A    between atoms: _143  and  _144
REMARK   54  A    between atoms: _144  and  _145
REMARK   55  A    between atoms: _150  and  _152
REMARK   56  A    between atoms: _152  and  _153
REMARK   57  A    between atoms: _152  and  _155
REMARK   58  A    between atoms: _155  and  _156
REMARK   59  A    between atoms: _156  and  _157
REMARK   60  A    between atoms: _163  and  _164
REMARK   61  A    between atoms: _169  and  _171
REMARK   62  A    between atoms: _171  and  _172
REMARK   63  A    between atoms: _171  and  _174
REMARK   64  A    between atoms: _174  and  _175
REMARK   65  A    between atoms: _178  and  _180
REMARK   66  A    between atoms: _180  and  _181
REMARK   67  A    between atoms: _180  and  _183
REMARK   68  A    between atoms: _183  and  _184
REMARK   69  A    between atoms: _189  and  _190
REMARK   70  A    between atoms: _192  and  _194
REMARK   71  A    between atoms: _194  and  _195
REMARK   72  A    between atoms: _194  and  _197
REMARK   73  A    between atoms: _197  and  _198
REMARK   74  A    between atoms: _201  and  _203
REMARK   75  A    between atoms: _203  and  _204
REMARK   76  A    between atoms: _203  and  _206
REMARK   77  A    between atoms: _206  and  _207
REMARK   78  A    between atoms: _212  and  _214
REMARK   79  A    between atoms: _214  and  _215
REMARK   80  A    between atoms: _218  and  _220
REMARK   81  A    between atoms: _220  and  _221
REMARK   82  A    between atoms: _220  and  _223
REMARK   83  A    between atoms: _223  and  _224
REMARK   84  A    between atoms: _227  and  _229
REMARK   85  A    between atoms: _229  and  _230
REMARK   86  A    between atoms: _229  and  _232
REMARK   87  A    between atoms: _232  and  _233
REMARK   88  A    between atoms: _236  and  _238
REMARK   89  A    between atoms: _238  and  _239
REMARK   90  A    between atoms: _238  and  _241
REMARK   91  A    between atoms: _241  and  _242
REMARK   92  A    between atoms: _245  and  _247
REMARK   93  A    between atoms: _247  and  _248
REMARK   94  A    between atoms: _247  and  _250
REMARK   95  A    between atoms: _250  and  _251
REMARK   96  A    between atoms: _251  and  _252
REMARK   97  A    between atoms: _257  and  _259
REMARK   98  A    between atoms: _259  and  _260
REMARK   99  A    between atoms: _259  and  _262
REMARK  100  A    between atoms: _262  and  _263
REMARK  101  A    between atoms: _263  and  _264
REMARK  102  A    between atoms: _264  and  _265
REMARK  103  A    between atoms: _274  and  _276
REMARK  104  A    between atoms: _276  and  _277
REMARK  105  A    between atoms: _276  and  _279
REMARK  106  A    between atoms: _279  and  _280
REMARK  107  A    between atoms: _280  and  _281
REMARK  108  A    between atoms: _284  and  _286
REMARK  109  A    between atoms: _286  and  _287
REMARK  110  A    between atoms: _286  and  _289
REMARK  111  A    between atoms: _289  and  _290
REMARK  112  A    between atoms: _293  and  _295
REMARK  113  A    between atoms: _295  and  _296
REMARK  114  A    between atoms: _295  and  _298
REMARK  115  A    between atoms: _298  and  _299
REMARK  116  A    between atoms: _299  and  _300
REMARK  117  A    between atoms: _300  and  _301
REMARK  118  A    between atoms: _310  and  _312
REMARK  119  A    between atoms: _312  and  _313
REMARK  120  A    between atoms: _312  and  _315
REMARK  121  A    between atoms: _315  and  _316
REMARK  122  A    between atoms: _316  and  _317
REMARK  123  A    between atoms: _317  and  _318
REMARK  124  A    between atoms: _318  and  _319
REMARK  125  A    between atoms: _323  and  _325
REMARK  126  A    between atoms: _325  and  _326
REMARK  127  A    between atoms: _329  and  _331
REMARK  128  A    between atoms: _331  and  _332
REMARK  129  A    between atoms: _331  and  _334
REMARK  130  A    between atoms: _334  and  _335
REMARK  131  A    between atoms: _335  and  _336
REMARK  132  A    between atoms: _339  and  _341
REMARK  133  A    between atoms: _341  and  _342
REMARK  134  A    between atoms: _341  and  _344
REMARK  135  A    between atoms: _344  and  _345
REMARK  136  A    between atoms: _345  and  _346
REMARK  137  A    between atoms: _346  and  _347
REMARK  138  A    between atoms: _356  and  _358
REMARK  139  A    between atoms: _358  and  _359
REMARK  140  A    between atoms: _358  and  _361
REMARK  141  A    between atoms: _361  and  _362
REMARK  142  A    between atoms: _372  and  _374
REMARK  143  A    between atoms: _374  and  _375
REMARK  144  A    between atoms: _378  and  _379
REMARK  145  A    between atoms: _384  and  _386
REMARK  146  A    between atoms: _386  and  _387
REMARK  147  A    between atoms: _386  and  _389
REMARK  148  A    between atoms: _389  and  _390
REMARK  149  A    between atoms: _390  and  _391
REMARK  150  A    between atoms: _391  and  _392
REMARK  151  A    between atoms: _401  and  _403
REMARK  152  A    between atoms: _403  and  _404
REMARK  153  A    between atoms: _403  and  _406
REMARK  154  A    between atoms: _406  and  _407
REMARK  155  A    between atoms: _410  and  _412
REMARK  156  A    between atoms: _412  and  _413
REMARK  157  A    between atoms: _412  and  _415
REMARK  158  A    between atoms: _415  and  _416
REMARK  159  A    between atoms: _419  and  _421
REMARK  160  A    between atoms: _421  and  _422
REMARK  161  A    between atoms: _421  and  _424
REMARK  162  A    between atoms: _424  and  _425
REMARK  163  A    between atoms: _428  and  _430
REMARK  164  A    between atoms: _430  and  _431
REMARK  165  A    between atoms: _430  and  _433
REMARK  166  A    between atoms: _433  and  _434
REMARK  167  A    between atoms: _437  and  _439
REMARK  168  A    between atoms: _439  and  _440
REMARK  169  A    between atoms: _439  and  _442
REMARK  170  A    between atoms: _442  and  _443
REMARK  171  A    between atoms: _446  and  _448
REMARK  172  A    between atoms: _448  and  _449
REMARK  173  A    between atoms: _448  and  _451
REMARK  174  A    between atoms: _451  and  _452
REMARK  175  A    between atoms: _452  and  _453
REMARK  176  A    between atoms: _455  and  _457
REMARK  177  A    between atoms: _457  and  _458
REMARK  178  A    between atoms: _457  and  _460
REMARK  179  A    between atoms: _460  and  _461
REMARK  180  A    between atoms: _464  and  _466
REMARK  181  A    between atoms: _466  and  _467
REMARK  182  A    between atoms: _466  and  _469
REMARK  183  A    between atoms: _469  and  _470
REMARK  184  A    between atoms: _476  and  _478
REMARK  185  A    between atoms: _478  and  _479
REMARK  186  A    between atoms: _478  and  _481
REMARK  187  A    between atoms: _481  and  _482
REMARK  188  A    between atoms: _485  and  _487
REMARK  189  A    between atoms: _487  and  _488
REMARK  190  A    between atoms: _487  and  _490
REMARK  191  A    between atoms: _490  and  _491
REMARK  192  A    between atoms: _494  and  _496
REMARK  193  A    between atoms: _496  and  _497
REMARK  194  A    between atoms: _496  and  _499
REMARK  195  A    between atoms: _499  and  _500
REMARK  196  A    between atoms: _500  and  _501
REMARK  197  A    between atoms: _504  and  _506
REMARK  198  A    between atoms: _506  and  _507
REMARK  199  A    between atoms: _506  and  _509
REMARK  200  A    between atoms: _509  and  _510
REMARK  201  A    between atoms: _510  and  _511
REMARK  202  A    between atoms: _511  and  _512
REMARK  203  A    between atoms: _521  and  _523
REMARK  204  A    between atoms: _523  and  _524
REMARK  205  A    between atoms: _523  and  _526
REMARK  206  A    between atoms: _526  and  _527
REMARK  207  A    between atoms: _530  and  _532
REMARK  208  A    between atoms: _532  and  _533
REMARK  209  A    between atoms: _532  and  _535
REMARK  210  A    between atoms: _535  and  _536
REMARK  211  A    between atoms: _539  and  _541
REMARK  212  A    between atoms: _541  and  _542
REMARK  213  A    between atoms: _541  and  _544
REMARK  214  A    between atoms: _548  and  _549
REMARK  215  A    between atoms: _554  and  _556
REMARK  216  A    between atoms: _556  and  _557
REMARK  217  A    between atoms: _556  and  _559
REMARK  218  A    between atoms: _559  and  _560
REMARK  219  A    between atoms: _565  and  _567
REMARK  220  A    between atoms: _567  and  _568
REMARK  221  A    between atoms: _567  and  _570
REMARK  222  A    between atoms: _570  and  _571
REMARK  223  A    between atoms: _576  and  _577
REMARK  224  A    between atoms: _579  and  _581
REMARK  225  A    between atoms: _581  and  _582
REMARK  226  A    between atoms: _581  and  _584
REMARK  227  A    between atoms: _584  and  _585
REMARK  228  A    between atoms: _588  and  _590
REMARK  229  A    between atoms: _590  and  _591
REMARK  230  A    between atoms: _590  and  _593
REMARK  231  A    between atoms: _593  and  _594
REMARK  232  A    between atoms: _594  and  _595
REMARK  233  A    between atoms: _595  and  _596
REMARK  234  A    between atoms: _605  and  _607
REMARK  235  A    between atoms: _607  and  _608
REMARK  236  A    between atoms: _610  and  _612
REMARK  237  A    between atoms: _612  and  _613
REMARK  238  A    between atoms: _612  and  _615
REMARK  239  A    between atoms: _615  and  _616
REMARK  240  A    between atoms: _622  and  _624
REMARK  241  A    between atoms: _624  and  _625
REMARK  242  A    between atoms: _624  and  _627
REMARK  243  A    between atoms: _627  and  _628
REMARK  244  A    between atoms: _628  and  _629
REMARK  245  A    between atoms: _631  and  _633
REMARK  246  A    between atoms: _633  and  _634
REMARK  247  A    between atoms: _633  and  _636
REMARK  248  A    between atoms: _636  and  _637
REMARK                            x       y       z     vdW  Elec       q    Type
REMARK                         _______ _______ _______ _____ _____    ______ ____
ROOT
ATOM      1  O   HOH     1       8.384  22.610   8.404  0.00  0.00    +0.000 OA
ENDROOT
TORSDOF 0
REMARK  Name = ../refined-set-2016/4f7v/4f7v_pocket.pdb
REMARK  248 active torsions:
REMARK  status: ('A' for Active; 'I' for Inactive)
REMARK    1  A    between atoms: _1  and  _3
REMARK    2  A    between atoms: _3  and  _4
REMARK    3  A    between atoms: _3  and  _6
REMARK    4  A    between atoms: _6  and  _7
REMARK    5  A    between atoms: _12  and  _13
REMARK    6  A    between atoms: _15  and  _17
REMARK    7  A    between atoms: _17  and  _18
REMARK    8  A    between atoms: _17  and  _20
REMARK    9  A    between atoms: _20  and  _21
REMARK   10  A    between atoms: _24  and  _26
REMARK   11  A    between atoms: _26  and  _27
REMARK   12  A    between atoms: _30  and  _32
REMARK   13  A    between atoms: _32  and  _33
REMARK   14  A    between atoms: _32  and  _35
REMARK   15  A    between atoms: _35  and  _36
REMARK   16  A    between atoms: _39  and  _41
REMARK   17  A    between atoms: _41  and  _42
REMARK   18  A    between atoms: _44  and  _46
REMARK   19  A    between atoms: _46  and  _47
REMARK   20  A    between atoms: _46  and  _49
REMARK   21  A    between atoms: _49  and  _50
REMARK   22  A    between atoms: _52  and  _54
REMARK   23  A    between atoms: _54  and  _55
REMARK   24  A    between atoms: _54  and  _57
REMARK   25  A    between atoms: _57  and  _58
REMARK   26  A    between atoms: _63  and  _65
REMARK   27  A    between atoms: _65  and  _66
REMARK   28  A    between atoms: _65  and  _68
REMARK   29  A    between atoms: _68  and  _69
REMARK   30  A    between atoms: _74  and  _75
REMARK   31  A    between atoms: _77  and  _79
REMARK   32  A    between atoms: _79  and  _80
REMARK   33  A    between atoms: _79  and  _82
REMARK   34  A    between atoms: _82  and  _83
REMARK   35  A    between atoms: _83  and  _84
REMARK   36  A    between atoms: _84  and  _85
REMARK   37  A    between atoms: _94  and  _96
REMARK   38  A    between atoms: _96  and  _97
REMARK   39  A    between atoms: _96  and  _99
REMARK   40  A    between atoms: _99  and  _100
REMARK   41  A    between atoms: _104  and  _105
REMARK   42  A    between atoms: _111  and  _112
REMARK   43  A    between atoms: _117  and  _119
REMARK   44  A    between atoms: _119  and  _120
REMARK   45  A    between atoms: _119  and  _122
REMARK   46  A    between atoms: _122  and  _123
REMARK   47  A    between atoms: _126  and  _128
REMARK   48  A    between atoms: _128  and  _129
REMARK   49  A    between atoms: _132  and  _133
REMARK   50  A    between atoms: _138  and  _140
REMARK   51  A    between atoms: _140  and  _141
REMARK   52  A    between atoms: _140  and  _143
REMARK   53  A    between atoms: _143  and  _144
REMARK   54  A    between atoms: _144  and  _145
REMARK   55  A    between atoms: _150  and  _152
REMARK   56  A    between atoms: _152  and  _153
REMARK   57  A    between atoms: _152  and  _155
REMARK   58  A    between atoms: _155  and  _156
REMARK   59  A    between atoms: _156  and  _157
REMARK   60  A    between atoms: _163  and  _164
REMARK   61  A    between atoms: _169  and  _171
REMARK   62  A    between atoms: _171  and  _172
REMARK   63  A    between atoms: _171  and  _174
REMARK   64  A    between atoms: _174  and  _175
REMARK   65  A    between atoms: _178  and  _180
REMARK   66  A    between atoms: _180  and  _181
REMARK   67  A    between atoms: _180  and  _183
REMARK   68  A    between atoms: _183  and  _184
REMARK   69  A    between atoms: _189  and  _190
REMARK   70  A    between atoms: _192  and  _194
REMARK   71  A    between atoms: _194  and  _195
REMARK   72  A    between atoms: _194  and  _197
REMARK   73  A    between atoms: _197  and  _198
REMARK   74  A    between atoms: _201  and  _203
REMARK   75  A    between atoms: _203  and  _204
REMARK   76  A    between atoms: _203  and  _206
REMARK   77  A    between atoms: _206  and  _207
REMARK   78  A    between atoms: _212  and  _214
REMARK   79  A    between atoms: _214  and  _215
REMARK   80  A    between atoms: _218  and  _220
REMARK   81  A    between atoms: _220  and  _221
REMARK   82  A    between atoms: _220  and  _223
REMARK   83  A    between atoms: _223  and  _224
REMARK   84  A    between atoms: _227  and  _229
REMARK   85  A    between atoms: _229  and  _230
REMARK   86  A    between atoms: _229  and  _232
REMARK   87  A    between atoms: _232  and  _233
REMARK   88  A    between atoms: _236  and  _238
REMARK   89  A    between atoms: _238  and  _239
REMARK   90  A    between atoms: _238  and  _241
REMARK   91  A    between atoms: _241  and  _242
REMARK   92  A    between atoms: _245  and  _247
REMARK   93  A    between atoms: _247  and  _248
REMARK   94  A    between atoms: _247  and  _250
REMARK   95  A    between atoms: _250  and  _251
REMARK   96  A    between atoms: _251  and  _252
REMARK   97  A    between atoms: _257  and  _259
REMARK   98  A    between atoms: _259  and  _260
REMARK   99  A    between atoms: _259  and  _262
REMARK  100  A    between atoms: _262  and  _263
REMARK  101  A    between atoms: _263  and  _264
REMARK  102  A    between atoms: _264  and  _265
REMARK  103  A    between atoms: _274  and  _276
REMARK  104  A    between atoms: _276  and  _277
REMARK  105  A    between atoms: _276  and  _279
REMARK  106  A    between atoms: _279  and  _280
REMARK  107  A    between atoms: _280  and  _281
REMARK  108  A    between atoms: _284  and  _286
REMARK  109  A    between atoms: _286  and  _287
REMARK  110  A    between atoms: _286  and  _289
REMARK  111  A    between atoms: _289  and  _290
REMARK  112  A    between atoms: _293  and  _295
REMARK  113  A    between atoms: _295  and  _296
REMARK  114  A    between atoms: _295  and  _298
REMARK  115  A    between atoms: _298  and  _299
REMARK  116  A    between atoms: _299  and  _300
REMARK  117  A    between atoms: _300  and  _301
REMARK  118  A    between atoms: _310  and  _312
REMARK  119  A    between atoms: _312  and  _313
REMARK  120  A    between atoms: _312  and  _315
REMARK  121  A    between atoms: _315  and  _316
REMARK  122  A    between atoms: _316  and  _317
REMARK  123  A    between atoms: _317  and  _318
REMARK  124  A    between atoms: _318  and  _319
REMARK  125  A    between atoms: _323  and  _325
REMARK  126  A    between atoms: _325  and  _326
REMARK  127  A    between atoms: _329  and  _331
REMARK  128  A    between atoms: _331  and  _332
REMARK  129  A    between atoms: _331  and  _334
REMARK  130  A    between atoms: _334  and  _335
REMARK  131  A    between atoms: _335  and  _336
REMARK  132  A    between atoms: _339  and  _341
REMARK  133  A    between atoms: _341  and  _342
REMARK  134  A    between atoms: _341  and  _344
REMARK  135  A    between atoms: _344  and  _345
REMARK  136  A    between atoms: _345  and  _346
REMARK  137  A    between atoms: _346  and  _347
REMARK  138  A    between atoms: _356  and  _358
REMARK  139  A    between atoms: _358  and  _359
REMARK  140  A    between atoms: _358  and  _361
REMARK  141  A    between atoms: _361  and  _362
REMARK  142  A    between atoms: _372  and  _374
REMARK  143  A    between atoms: _374  and  _375
REMARK  144  A    between atoms: _378  and  _379
REMARK  145  A    between atoms: _384  and  _386
REMARK  146  A    between atoms: _386  and  _387
REMARK  147  A    between atoms: _386  and  _389
REMARK  148  A    between atoms: _389  and  _390
REMARK  149  A    between atoms: _390  and  _391
REMARK  150  A    between atoms: _391  and  _392
REMARK  151  A    between atoms: _401  and  _403
REMARK  152  A    between atoms: _403  and  _404
REMARK  153  A    between atoms: _403  and  _406
REMARK  154  A    between atoms: _406  and  _407
REMARK  155  A    between atoms: _410  and  _412
REMARK  156  A    between atoms: _412  and  _413
REMARK  157  A    between atoms: _412  and  _415
REMARK  158  A    between atoms: _415  and  _416
REMARK  159  A    between atoms: _419  and  _421
REMARK  160  A    between atoms: _421  and  _422
REMARK  161  A    between atoms: _421  and  _424
REMARK  162  A    between atoms: _424  and  _425
REMARK  163  A    between atoms: _428  and  _430
REMARK  164  A    between atoms: _430  and  _431
REMARK  165  A    between atoms: _430  and  _433
REMARK  166  A    between atoms: _433  and  _434
REMARK  167  A    between atoms: _437  and  _439
REMARK  168  A    between atoms: _439  and  _440
REMARK  169  A    between atoms: _439  and  _442
REMARK  170  A    between atoms: _442  and  _443
REMARK  171  A    between atoms: _446  and  _448
REMARK  172  A    between atoms: _448  and  _449
REMARK  173  A    between atoms: _448  and  _451
REMARK  174  A    between atoms: _451  and  _452
REMARK  175  A    between atoms: _452  and  _453
REMARK  176  A    between atoms: _455  and  _457
REMARK  177  A    between atoms: _457  and  _458
REMARK  178  A    between atoms: _457  and  _460
REMARK  179  A    between atoms: _460  and  _461
REMARK  180  A    between atoms: _464  and  _466
REMARK  181  A    between atoms: _466  and  _467
REMARK  182  A    between atoms: _466  and  _469
REMARK  183  A    between atoms: _469  and  _470
REMARK  184  A    between atoms: _476  and  _478
REMARK  185  A    between atoms: _478  and  _479
REMARK  186  A    between atoms: _478  and  _481
REMARK  187  A    between atoms: _481  and  _482
REMARK  188  A    between atoms: _485  and  _487
REMARK  189  A    between atoms: _487  and  _488
REMARK  190  A    between atoms: _487  and  _490
REMARK  191  A    between atoms: _490  and  _491
REMARK  192  A    between atoms: _494  and  _496
REMARK  193  A    between atoms: _496  and  _497
REMARK  194  A    between atoms: _496  and  _499
REMARK  195  A    between atoms: _499  and  _500
REMARK  196  A    between atoms: _500  and  _501
REMARK  197  A    between atoms: _504  and  _506
REMARK  198  A    between atoms: _506  and  _507
REMARK  199  A    between atoms: _506  and  _509
REMARK  200  A    between atoms: _509  and  _510
REMARK  201  A    between atoms: _510  and  _511
REMARK  202  A    between atoms: _511  and  _512
REMARK  203  A    between atoms: _521  and  _523
REMARK  204  A    between atoms: _523  and  _524
REMARK  205  A    between atoms: _523  and  _526
REMARK  206  A    between atoms: _526  and  _527
REMARK  207  A    between atoms: _530  and  _532
REMARK  208  A    between atoms: _532  and  _533
REMARK  209  A    between atoms: _532  and  _535
REMARK  210  A    between atoms: _535  and  _536
REMARK  211  A    between atoms: _539  and  _541
REMARK  212  A    between atoms: _541  and  _542
REMARK  213  A    between atoms: _541  and  _544
REMARK  214  A    between atoms: _548  and  _549
REMARK  215  A    between atoms: _554  and  _556
REMARK  216  A    between atoms: _556  and  _557
REMARK  217  A    between atoms: _556  and  _559
REMARK  218  A    between atoms: _559  and  _560
REMARK  219  A    between atoms: _565  and  _567
REMARK  220  A    between atoms: _567  and  _568
REMARK  221  A    between atoms: _567  and  _570
REMARK  222  A    between atoms: _570  and  _571
REMARK  223  A    between atoms: _576  and  _577
REMARK  224  A    between atoms: _579  and  _581
REMARK  225  A    between atoms: _581  and  _582
REMARK  226  A    between atoms: _581  and  _584
REMARK  227  A    between atoms: _584  and  _585
REMARK  228  A    between atoms: _588  and  _590
REMARK  229  A    between atoms: _590  and  _591
REMARK  230  A    between atoms: _590  and  _593
REMARK  231  A    between atoms: _593  and  _594
REMARK  232  A    between atoms: _594  and  _595
REMARK  233  A    between atoms: _595  and  _596
REMARK  234  A    between atoms: _605  and  _607
REMARK  235  A    between atoms: _607  and  _608
REMARK  236  A    between atoms: _610  and  _612
REMARK  237  A    between atoms: _612  and  _613
REMARK  238  A    between atoms: _612  and  _615
REMARK  239  A    between atoms: _615  and  _616
REMARK  240  A    between atoms: _622  and  _624
REMARK  241  A    between atoms: _624  and  _625
REMARK  242  A    between atoms: _624  and  _627
REMARK  243  A    between atoms: _627  and  _628
REMARK  244  A    between atoms: _628  and  _629
REMARK  245  A    between atoms: _631  and  _633
REMARK  246  A    between atoms: _633  and  _634
REMARK  247  A    between atoms: _633  and  _636
REMARK  248  A    between atoms: _636  and  _637
REMARK                            x       y       z     vdW  Elec       q    Type
REMARK                         _______ _______ _______ _____ _____    ______ ____
ROOT
ATOM      1  O   HOH     1       3.409  16.085  10.606  0.00  0.00    +0.000 OA
ENDROOT
TORSDOF 0
REMARK  Name = ../refined-set-2016/4f7v/4f7v_pocket.pdb
REMARK  248 active torsions:
REMARK  status: ('A' for Active; 'I' for Inactive)
REMARK    1  A    between atoms: _1  and  _3
REMARK    2  A    between atoms: _3  and  _4
REMARK    3  A    between atoms: _3  and  _6
REMARK    4  A    between atoms: _6  and  _7
REMARK    5  A    between atoms: _12  and  _13
REMARK    6  A    between atoms: _15  and  _17
REMARK    7  A    between atoms: _17  and  _18
REMARK    8  A    between atoms: _17  and  _20
REMARK    9  A    between atoms: _20  and  _21
REMARK   10  A    between atoms: _24  and  _26
REMARK   11  A    between atoms: _26  and  _27
REMARK   12  A    between atoms: _30  and  _32
REMARK   13  A    between atoms: _32  and  _33
REMARK   14  A    between atoms: _32  and  _35
REMARK   15  A    between atoms: _35  and  _36
REMARK   16  A    between atoms: _39  and  _41
REMARK   17  A    between atoms: _41  and  _42
REMARK   18  A    between atoms: _44  and  _46
REMARK   19  A    between atoms: _46  and  _47
REMARK   20  A    between atoms: _46  and  _49
REMARK   21  A    between atoms: _49  and  _50
REMARK   22  A    between atoms: _52  and  _54
REMARK   23  A    between atoms: _54  and  _55
REMARK   24  A    between atoms: _54  and  _57
REMARK   25  A    between atoms: _57  and  _58
REMARK   26  A    between atoms: _63  and  _65
REMARK   27  A    between atoms: _65  and  _66
REMARK   28  A    between atoms: _65  and  _68
REMARK   29  A    between atoms: _68  and  _69
REMARK   30  A    between atoms: _74  and  _75
REMARK   31  A    between atoms: _77  and  _79
REMARK   32  A    between atoms: _79  and  _80
REMARK   33  A    between atoms: _79  and  _82
REMARK   34  A    between atoms: _82  and  _83
REMARK   35  A    between atoms: _83  and  _84
REMARK   36  A    between atoms: _84  and  _85
REMARK   37  A    between atoms: _94  and  _96
REMARK   38  A    between atoms: _96  and  _97
REMARK   39  A    between atoms: _96  and  _99
REMARK   40  A    between atoms: _99  and  _100
REMARK   41  A    between atoms: _104  and  _105
REMARK   42  A    between atoms: _111  and  _112
REMARK   43  A    between atoms: _117  and  _119
REMARK   44  A    between atoms: _119  and  _120
REMARK   45  A    between atoms: _119  and  _122
REMARK   46  A    between atoms: _122  and  _123
REMARK   47  A    between atoms: _126  and  _128
REMARK   48  A    between atoms: _128  and  _129
REMARK   49  A    between atoms: _132  and  _133
REMARK   50  A    between atoms: _138  and  _140
REMARK   51  A    between atoms: _140  and  _141
REMARK   52  A    between atoms: _140  and  _143
REMARK   53  A    between atoms: _143  and  _144
REMARK   54  A    between atoms: _144  and  _145
REMARK   55  A    between atoms: _150  and  _152
REMARK   56  A    between atoms: _152  and  _153
REMARK   57  A    between atoms: _152  and  _155
REMARK   58  A    between atoms: _155  and  _156
REMARK   59  A    between atoms: _156  and  _157
REMARK   60  A    between atoms: _163  and  _164
REMARK   61  A    between atoms: _169  and  _171
REMARK   62  A    between atoms: _171  and  _172
REMARK   63  A    between atoms: _171  and  _174
REMARK   64  A    between atoms: _174  and  _175
REMARK   65  A    between atoms: _178  and  _180
REMARK   66  A    between atoms: _180  and  _181
REMARK   67  A    between atoms: _180  and  _183
REMARK   68  A    between atoms: _183  and  _184
REMARK   69  A    between atoms: _189  and  _190
REMARK   70  A    between atoms: _192  and  _194
REMARK   71  A    between atoms: _194  and  _195
REMARK   72  A    between atoms: _194  and  _197
REMARK   73  A    between atoms: _197  and  _198
REMARK   74  A    between atoms: _201  and  _203
REMARK   75  A    between atoms: _203  and  _204
REMARK   76  A    between atoms: _203  and  _206
REMARK   77  A    between atoms: _206  and  _207
REMARK   78  A    between atoms: _212  and  _214
REMARK   79  A    between atoms: _214  and  _215
REMARK   80  A    between atoms: _218  and  _220
REMARK   81  A    between atoms: _220  and  _221
REMARK   82  A    between atoms: _220  and  _223
REMARK   83  A    between atoms: _223  and  _224
REMARK   84  A    between atoms: _227  and  _229
REMARK   85  A    between atoms: _229  and  _230
REMARK   86  A    between atoms: _229  and  _232
REMARK   87  A    between atoms: _232  and  _233
REMARK   88  A    between atoms: _236  and  _238
REMARK   89  A    between atoms: _238  and  _239
REMARK   90  A    between atoms: _238  and  _241
REMARK   91  A    between atoms: _241  and  _242
REMARK   92  A    between atoms: _245  and  _247
REMARK   93  A    between atoms: _247  and  _248
REMARK   94  A    between atoms: _247  and  _250
REMARK   95  A    between atoms: _250  and  _251
REMARK   96  A    between atoms: _251  and  _252
REMARK   97  A    between atoms: _257  and  _259
REMARK   98  A    between atoms: _259  and  _260
REMARK   99  A    between atoms: _259  and  _262
REMARK  100  A    between atoms: _262  and  _263
REMARK  101  A    between atoms: _263  and  _264
REMARK  102  A    between atoms: _264  and  _265
REMARK  103  A    between atoms: _274  and  _276
REMARK  104  A    between atoms: _276  and  _277
REMARK  105  A    between atoms: _276  and  _279
REMARK  106  A    between atoms: _279  and  _280
REMARK  107  A    between atoms: _280  and  _281
REMARK  108  A    between atoms: _284  and  _286
REMARK  109  A    between atoms: _286  and  _287
REMARK  110  A    between atoms: _286  and  _289
REMARK  111  A    between atoms: _289  and  _290
REMARK  112  A    between atoms: _293  and  _295
REMARK  113  A    between atoms: _295  and  _296
REMARK  114  A    between atoms: _295  and  _298
REMARK  115  A    between atoms: _298  and  _299
REMARK  116  A    between atoms: _299  and  _300
REMARK  117  A    between atoms: _300  and  _301
REMARK  118  A    between atoms: _310  and  _312
REMARK  119  A    between atoms: _312  and  _313
REMARK  120  A    between atoms: _312  and  _315
REMARK  121  A    between atoms: _315  and  _316
REMARK  122  A    between atoms: _316  and  _317
REMARK  123  A    between atoms: _317  and  _318
REMARK  124  A    between atoms: _318  and  _319
REMARK  125  A    between atoms: _323  and  _325
REMARK  126  A    between atoms: _325  and  _326
REMARK  127  A    between atoms: _329  and  _331
REMARK  128  A    between atoms: _331  and  _332
REMARK  129  A    between atoms: _331  and  _334
REMARK  130  A    between atoms: _334  and  _335
REMARK  131  A    between atoms: _335  and  _336
REMARK  132  A    between atoms: _339  and  _341
REMARK  133  A    between atoms: _341  and  _342
REMARK  134  A    between atoms: _341  and  _344
REMARK  135  A    between atoms: _344  and  _345
REMARK  136  A    between atoms: _345  and  _346
REMARK  137  A    between atoms: _346  and  _347
REMARK  138  A    between atoms: _356  and  _358
REMARK  139  A    between atoms: _358  and  _359
REMARK  140  A    between atoms: _358  and  _361
REMARK  141  A    between atoms: _361  and  _362
REMARK  142  A    between atoms: _372  and  _374
REMARK  143  A    between atoms: _374  and  _375
REMARK  144  A    between atoms: _378  and  _379
REMARK  145  A    between atoms: _384  and  _386
REMARK  146  A    between atoms: _386  and  _387
REMARK  147  A    between atoms: _386  and  _389
REMARK  148  A    between atoms: _389  and  _390
REMARK  149  A    between atoms: _390  and  _391
REMARK  150  A    between atoms: _391  and  _392
REMARK  151  A    between atoms: _401  and  _403
REMARK  152  A    between atoms: _403  and  _404
REMARK  153  A    between atoms: _403  and  _406
REMARK  154  A    between atoms: _406  and  _407
REMARK  155  A    between atoms: _410  and  _412
REMARK  156  A    between atoms: _412  and  _413
REMARK  157  A    between atoms: _412  and  _415
REMARK  158  A    between atoms: _415  and  _416
REMARK  159  A    between atoms: _419  and  _421
REMARK  160  A    between atoms: _421  and  _422
REMARK  161  A    between atoms: _421  and  _424
REMARK  162  A    between atoms: _424  and  _425
REMARK  163  A    between atoms: _428  and  _430
REMARK  164  A    between atoms: _430  and  _431
REMARK  165  A    between atoms: _430  and  _433
REMARK  166  A    between atoms: _433  and  _434
REMARK  167  A    between atoms: _437  and  _439
REMARK  168  A    between atoms: _439  and  _440
REMARK  169  A    between atoms: _439  and  _442
REMARK  170  A    between atoms: _442  and  _443
REMARK  171  A    between atoms: _446  and  _448
REMARK  172  A    between atoms: _448  and  _449
REMARK  173  A    between atoms: _448  and  _451
REMARK  174  A    between atoms: _451  and  _452
REMARK  175  A    between atoms: _452  and  _453
REMARK  176  A    between atoms: _455  and  _457
REMARK  177  A    between atoms: _457  and  _458
REMARK  178  A    between atoms: _457  and  _460
REMARK  179  A    between atoms: _460  and  _461
REMARK  180  A    between atoms: _464  and  _466
REMARK  181  A    between atoms: _466  and  _467
REMARK  182  A    between atoms: _466  and  _469
REMARK  183  A    between atoms: _469  and  _470
REMARK  184  A    between atoms: _476  and  _478
REMARK  185  A    between atoms: _478  and  _479
REMARK  186  A    between atoms: _478  and  _481
REMARK  187  A    between atoms: _481  and  _482
REMARK  188  A    between atoms: _485  and  _487
REMARK  189  A    between atoms: _487  and  _488
REMARK  190  A    between atoms: _487  and  _490
REMARK  191  A    between atoms: _490  and  _491
REMARK  192  A    between atoms: _494  and  _496
REMARK  193  A    between atoms: _496  and  _497
REMARK  194  A    between atoms: _496  and  _499
REMARK  195  A    between atoms: _499  and  _500
REMARK  196  A    between atoms: _500  and  _501
REMARK  197  A    between atoms: _504  and  _506
REMARK  198  A    between atoms: _506  and  _507
REMARK  199  A    between atoms: _506  and  _509
REMARK  200  A    between atoms: _509  and  _510
REMARK  201  A    between atoms: _510  and  _511
REMARK  202  A    between atoms: _511  and  _512
REMARK  203  A    between atoms: _521  and  _523
REMARK  204  A    between atoms: _523  and  _524
REMARK  205  A    between atoms: _523  and  _526
REMARK  206  A    between atoms: _526  and  _527
REMARK  207  A    between atoms: _530  and  _532
REMARK  208  A    between atoms: _532  and  _533
REMARK  209  A    between atoms: _532  and  _535
REMARK  210  A    between atoms: _535  and  _536
REMARK  211  A    between atoms: _539  and  _541
REMARK  212  A    between atoms: _541  and  _542
REMARK  213  A    between atoms: _541  and  _544
REMARK  214  A    between atoms: _548  and  _549
REMARK  215  A    between atoms: _554  and  _556
REMARK  216  A    between atoms: _556  and  _557
REMARK  217  A    between atoms: _556  and  _559
REMARK  218  A    between atoms: _559  and  _560
REMARK  219  A    between atoms: _565  and  _567
REMARK  220  A    between atoms: _567  and  _568
REMARK  221  A    between atoms: _567  and  _570
REMARK  222  A    between atoms: _570  and  _571
REMARK  223  A    between atoms: _576  and  _577
REMARK  224  A    between atoms: _579  and  _581
REMARK  225  A    between atoms: _581  and  _582
REMARK  226  A    between atoms: _581  and  _584
REMARK  227  A    between atoms: _584  and  _585
REMARK  228  A    between atoms: _588  and  _590
REMARK  229  A    between atoms: _590  and  _591
REMARK  230  A    between atoms: _590  and  _593
REMARK  231  A    between atoms: _593  and  _594
REMARK  232  A    between atoms: _594  and  _595
REMARK  233  A    between atoms: _595  and  _596
REMARK  234  A    between atoms: _605  and  _607
REMARK  235  A    between atoms: _607  and  _608
REMARK  236  A    between atoms: _610  and  _612
REMARK  237  A    between atoms: _612  and  _613
REMARK  238  A    between atoms: _612  and  _615
REMARK  239  A    between atoms: _615  and  _616
REMARK  240  A    between atoms: _622  and  _624
REMARK  241  A    between atoms: _624  and  _625
REMARK  242  A    between atoms: _624  and  _627
REMARK  243  A    between atoms: _627  and  _628
REMARK  244  A    between atoms: _628  and  _629
REMARK  245  A    between atoms: _631  and  _633
REMARK  246  A    between atoms: _633  and  _634
REMARK  247  A    between atoms: _633  and  _636
REMARK  248  A    between atoms: _636  and  _637
REMARK                            x       y       z     vdW  Elec       q    Type
REMARK                         _______ _______ _______ _____ _____    ______ ____
ROOT
ATOM      1  O   HOH     1       9.102  28.873  -2.698  0.00  0.00    +0.000 OA
ENDROOT
TORSDOF 0
REMARK  Name = ../refined-set-2016/4f7v/4f7v_pocket.pdb
REMARK  248 active torsions:
REMARK  status: ('A' for Active; 'I' for Inactive)
REMARK    1  A    between atoms: _1  and  _3
REMARK    2  A    between atoms: _3  and  _4
REMARK    3  A    between atoms: _3  and  _6
REMARK    4  A    between atoms: _6  and  _7
REMARK    5  A    between atoms: _12  and  _13
REMARK    6  A    between atoms: _15  and  _17
REMARK    7  A    between atoms: _17  and  _18
REMARK    8  A    between atoms: _17  and  _20
REMARK    9  A    between atoms: _20  and  _21
REMARK   10  A    between atoms: _24  and  _26
REMARK   11  A    between atoms: _26  and  _27
REMARK   12  A    between atoms: _30  and  _32
REMARK   13  A    between atoms: _32  and  _33
REMARK   14  A    between atoms: _32  and  _35
REMARK   15  A    between atoms: _35  and  _36
REMARK   16  A    between atoms: _39  and  _41
REMARK   17  A    between atoms: _41  and  _42
REMARK   18  A    between atoms: _44  and  _46
REMARK   19  A    between atoms: _46  and  _47
REMARK   20  A    between atoms: _46  and  _49
REMARK   21  A    between atoms: _49  and  _50
REMARK   22  A    between atoms: _52  and  _54
REMARK   23  A    between atoms: _54  and  _55
REMARK   24  A    between atoms: _54  and  _57
REMARK   25  A    between atoms: _57  and  _58
REMARK   26  A    between atoms: _63  and  _65
REMARK   27  A    between atoms: _65  and  _66
REMARK   28  A    between atoms: _65  and  _68
REMARK   29  A    between atoms: _68  and  _69
REMARK   30  A    between atoms: _74  and  _75
REMARK   31  A    between atoms: _77  and  _79
REMARK   32  A    between atoms: _79  and  _80
REMARK   33  A    between atoms: _79  and  _82
REMARK   34  A    between atoms: _82  and  _83
REMARK   35  A    between atoms: _83  and  _84
REMARK   36  A    between atoms: _84  and  _85
REMARK   37  A    between atoms: _94  and  _96
REMARK   38  A    between atoms: _96  and  _97
REMARK   39  A    between atoms: _96  and  _99
REMARK   40  A    between atoms: _99  and  _100
REMARK   41  A    between atoms: _104  and  _105
REMARK   42  A    between atoms: _111  and  _112
REMARK   43  A    between atoms: _117  and  _119
REMARK   44  A    between atoms: _119  and  _120
REMARK   45  A    between atoms: _119  and  _122
REMARK   46  A    between atoms: _122  and  _123
REMARK   47  A    between atoms: _126  and  _128
REMARK   48  A    between atoms: _128  and  _129
REMARK   49  A    between atoms: _132  and  _133
REMARK   50  A    between atoms: _138  and  _140
REMARK   51  A    between atoms: _140  and  _141
REMARK   52  A    between atoms: _140  and  _143
REMARK   53  A    between atoms: _143  and  _144
REMARK   54  A    between atoms: _144  and  _145
REMARK   55  A    between atoms: _150  and  _152
REMARK   56  A    between atoms: _152  and  _153
REMARK   57  A    between atoms: _152  and  _155
REMARK   58  A    between atoms: _155  and  _156
REMARK   59  A    between atoms: _156  and  _157
REMARK   60  A    between atoms: _163  and  _164
REMARK   61  A    between atoms: _169  and  _171
REMARK   62  A    between atoms: _171  and  _172
REMARK   63  A    between atoms: _171  and  _174
REMARK   64  A    between atoms: _174  and  _175
REMARK   65  A    between atoms: _178  and  _180
REMARK   66  A    between atoms: _180  and  _181
REMARK   67  A    between atoms: _180  and  _183
REMARK   68  A    between atoms: _183  and  _184
REMARK   69  A    between atoms: _189  and  _190
REMARK   70  A    between atoms: _192  and  _194
REMARK   71  A    between atoms: _194  and  _195
REMARK   72  A    between atoms: _194  and  _197
REMARK   73  A    between atoms: _197  and  _198
REMARK   74  A    between atoms: _201  and  _203
REMARK   75  A    between atoms: _203  and  _204
REMARK   76  A    between atoms: _203  and  _206
REMARK   77  A    between atoms: _206  and  _207
REMARK   78  A    between atoms: _212  and  _214
REMARK   79  A    between atoms: _214  and  _215
REMARK   80  A    between atoms: _218  and  _220
REMARK   81  A    between atoms: _220  and  _221
REMARK   82  A    between atoms: _220  and  _223
REMARK   83  A    between atoms: _223  and  _224
REMARK   84  A    between atoms: _227  and  _229
REMARK   85  A    between atoms: _229  and  _230
REMARK   86  A    between atoms: _229  and  _232
REMARK   87  A    between atoms: _232  and  _233
REMARK   88  A    between atoms: _236  and  _238
REMARK   89  A    between atoms: _238  and  _239
REMARK   90  A    between atoms: _238  and  _241
REMARK   91  A    between atoms: _241  and  _242
REMARK   92  A    between atoms: _245  and  _247
REMARK   93  A    between atoms: _247  and  _248
REMARK   94  A    between atoms: _247  and  _250
REMARK   95  A    between atoms: _250  and  _251
REMARK   96  A    between atoms: _251  and  _252
REMARK   97  A    between atoms: _257  and  _259
REMARK   98  A    between atoms: _259  and  _260
REMARK   99  A    between atoms: _259  and  _262
REMARK  100  A    between atoms: _262  and  _263
REMARK  101  A    between atoms: _263  and  _264
REMARK  102  A    between atoms: _264  and  _265
REMARK  103  A    between atoms: _274  and  _276
REMARK  104  A    between atoms: _276  and  _277
REMARK  105  A    between atoms: _276  and  _279
REMARK  106  A    between atoms: _279  and  _280
REMARK  107  A    between atoms: _280  and  _281
REMARK  108  A    between atoms: _284  and  _286
REMARK  109  A    between atoms: _286  and  _287
REMARK  110  A    between atoms: _286  and  _289
REMARK  111  A    between atoms: _289  and  _290
REMARK  112  A    between atoms: _293  and  _295
REMARK  113  A    between atoms: _295  and  _296
REMARK  114  A    between atoms: _295  and  _298
REMARK  115  A    between atoms: _298  and  _299
REMARK  116  A    between atoms: _299  and  _300
REMARK  117  A    between atoms: _300  and  _301
REMARK  118  A    between atoms: _310  and  _312
REMARK  119  A    between atoms: _312  and  _313
REMARK  120  A    between atoms: _312  and  _315
REMARK  121  A    between atoms: _315  and  _316
REMARK  122  A    between atoms: _316  and  _317
REMARK  123  A    between atoms: _317  and  _318
REMARK  124  A    between atoms: _318  and  _319
REMARK  125  A    between atoms: _323  and  _325
REMARK  126  A    between atoms: _325  and  _326
REMARK  127  A    between atoms: _329  and  _331
REMARK  128  A    between atoms: _331  and  _332
REMARK  129  A    between atoms: _331  and  _334
REMARK  130  A    between atoms: _334  and  _335
REMARK  131  A    between atoms: _335  and  _336
REMARK  132  A    between atoms: _339  and  _341
REMARK  133  A    between atoms: _341  and  _342
REMARK  134  A    between atoms: _341  and  _344
REMARK  135  A    between atoms: _344  and  _345
REMARK  136  A    between atoms: _345  and  _346
REMARK  137  A    between atoms: _346  and  _347
REMARK  138  A    between atoms: _356  and  _358
REMARK  139  A    between atoms: _358  and  _359
REMARK  140  A    between atoms: _358  and  _361
REMARK  141  A    between atoms: _361  and  _362
REMARK  142  A    between atoms: _372  and  _374
REMARK  143  A    between atoms: _374  and  _375
REMARK  144  A    between atoms: _378  and  _379
REMARK  145  A    between atoms: _384  and  _386
REMARK  146  A    between atoms: _386  and  _387
REMARK  147  A    between atoms: _386  and  _389
REMARK  148  A    between atoms: _389  and  _390
REMARK  149  A    between atoms: _390  and  _391
REMARK  150  A    between atoms: _391  and  _392
REMARK  151  A    between atoms: _401  and  _403
REMARK  152  A    between atoms: _403  and  _404
REMARK  153  A    between atoms: _403  and  _406
REMARK  154  A    between atoms: _406  and  _407
REMARK  155  A    between atoms: _410  and  _412
REMARK  156  A    between atoms: _412  and  _413
REMARK  157  A    between atoms: _412  and  _415
REMARK  158  A    between atoms: _415  and  _416
REMARK  159  A    between atoms: _419  and  _421
REMARK  160  A    between atoms: _421  and  _422
REMARK  161  A    between atoms: _421  and  _424
REMARK  162  A    between atoms: _424  and  _425
REMARK  163  A    between atoms: _428  and  _430
REMARK  164  A    between atoms: _430  and  _431
REMARK  165  A    between atoms: _430  and  _433
REMARK  166  A    between atoms: _433  and  _434
REMARK  167  A    between atoms: _437  and  _439
REMARK  168  A    between atoms: _439  and  _440
REMARK  169  A    between atoms: _439  and  _442
REMARK  170  A    between atoms: _442  and  _443
REMARK  171  A    between atoms: _446  and  _448
REMARK  172  A    between atoms: _448  and  _449
REMARK  173  A    between atoms: _448  and  _451
REMARK  174  A    between atoms: _451  and  _452
REMARK  175  A    between atoms: _452  and  _453
REMARK  176  A    between atoms: _455  and  _457
REMARK  177  A    between atoms: _457  and  _458
REMARK  178  A    between atoms: _457  and  _460
REMARK  179  A    between atoms: _460  and  _461
REMARK  180  A    between atoms: _464  and  _466
REMARK  181  A    between atoms: _466  and  _467
REMARK  182  A    between atoms: _466  and  _469
REMARK  183  A    between atoms: _469  and  _470
REMARK  184  A    between atoms: _476  and  _478
REMARK  185  A    between atoms: _478  and  _479
REMARK  186  A    between atoms: _478  and  _481
REMARK  187  A    between atoms: _481  and  _482
REMARK  188  A    between atoms: _485  and  _487
REMARK  189  A    between atoms: _487  and  _488
REMARK  190  A    between atoms: _487  and  _490
REMARK  191  A    between atoms: _490  and  _491
REMARK  192  A    between atoms: _494  and  _496
REMARK  193  A    between atoms: _496  and  _497
REMARK  194  A    between atoms: _496  and  _499
REMARK  195  A    between atoms: _499  and  _500
REMARK  196  A    between atoms: _500  and  _501
REMARK  197  A    between atoms: _504  and  _506
REMARK  198  A    between atoms: _506  and  _507
REMARK  199  A    between atoms: _506  and  _509
REMARK  200  A    between atoms: _509  and  _510
REMARK  201  A    between atoms: _510  and  _511
REMARK  202  A    between atoms: _511  and  _512
REMARK  203  A    between atoms: _521  and  _523
REMARK  204  A    between atoms: _523  and  _524
REMARK  205  A    between atoms: _523  and  _526
REMARK  206  A    between atoms: _526  and  _527
REMARK  207  A    between atoms: _530  and  _532
REMARK  208  A    between atoms: _532  and  _533
REMARK  209  A    between atoms: _532  and  _535
REMARK  210  A    between atoms: _535  and  _536
REMARK  211  A    between atoms: _539  and  _541
REMARK  212  A    between atoms: _541  and  _542
REMARK  213  A    between atoms: _541  and  _544
REMARK  214  A    between atoms: _548  and  _549
REMARK  215  A    between atoms: _554  and  _556
REMARK  216  A    between atoms: _556  and  _557
REMARK  217  A    between atoms: _556  and  _559
REMARK  218  A    between atoms: _559  and  _560
REMARK  219  A    between atoms: _565  and  _567
REMARK  220  A    between atoms: _567  and  _568
REMARK  221  A    between atoms: _567  and  _570
REMARK  222  A    between atoms: _570  and  _571
REMARK  223  A    between atoms: _576  and  _577
REMARK  224  A    between atoms: _579  and  _581
REMARK  225  A    between atoms: _581  and  _582
REMARK  226  A    between atoms: _581  and  _584
REMARK  227  A    between atoms: _584  and  _585
REMARK  228  A    between atoms: _588  and  _590
REMARK  229  A    between atoms: _590  and  _591
REMARK  230  A    between atoms: _590  and  _593
REMARK  231  A    between atoms: _593  and  _594
REMARK  232  A    between atoms: _594  and  _595
REMARK  233  A    between atoms: _595  and  _596
REMARK  234  A    between atoms: _605  and  _607
REMARK  235  A    between atoms: _607  and  _608
REMARK  236  A    between atoms: _610  and  _612
REMARK  237  A    between atoms: _612  and  _613
REMARK  238  A    between atoms: _612  and  _615
REMARK  239  A    between atoms: _615  and  _616
REMARK  240  A    between atoms: _622  and  _624
REMARK  241  A    between atoms: _624  and  _625
REMARK  242  A    between atoms: _624  and  _627
REMARK  243  A    between atoms: _627  and  _628
REMARK  244  A    between atoms: _628  and  _629
REMARK  245  A    between atoms: _631  and  _633
REMARK  246  A    between atoms: _633  and  _634
REMARK  247  A    between atoms: _633  and  _636
REMARK  248  A    between atoms: _636  and  _637
REMARK                            x       y       z     vdW  Elec       q    Type
REMARK                         _______ _______ _______ _____ _____    ______ ____
ROOT
ATOM      1  O   HOH     1       4.680  19.576   9.313  0.00  0.00    +0.000 OA
ENDROOT
TORSDOF 0
REMARK  Name = ../refined-set-2016/4f7v/4f7v_pocket.pdb
REMARK  248 active torsions:
REMARK  status: ('A' for Active; 'I' for Inactive)
REMARK    1  A    between atoms: _1  and  _3
REMARK    2  A    between atoms: _3  and  _4
REMARK    3  A    between atoms: _3  and  _6
REMARK    4  A    between atoms: _6  and  _7
REMARK    5  A    between atoms: _12  and  _13
REMARK    6  A    between atoms: _15  and  _17
REMARK    7  A    between atoms: _17  and  _18
REMARK    8  A    between atoms: _17  and  _20
REMARK    9  A    between atoms: _20  and  _21
REMARK   10  A    between atoms: _24  and  _26
REMARK   11  A    between atoms: _26  and  _27
REMARK   12  A    between atoms: _30  and  _32
REMARK   13  A    between atoms: _32  and  _33
REMARK   14  A    between atoms: _32  and  _35
REMARK   15  A    between atoms: _35  and  _36
REMARK   16  A    between atoms: _39  and  _41
REMARK   17  A    between atoms: _41  and  _42
REMARK   18  A    between atoms: _44  and  _46
REMARK   19  A    between atoms: _46  and  _47
REMARK   20  A    between atoms: _46  and  _49
REMARK   21  A    between atoms: _49  and  _50
REMARK   22  A    between atoms: _52  and  _54
REMARK   23  A    between atoms: _54  and  _55
REMARK   24  A    between atoms: _54  and  _57
REMARK   25  A    between atoms: _57  and  _58
REMARK   26  A    between atoms: _63  and  _65
REMARK   27  A    between atoms: _65  and  _66
REMARK   28  A    between atoms: _65  and  _68
REMARK   29  A    between atoms: _68  and  _69
REMARK   30  A    between atoms: _74  and  _75
REMARK   31  A    between atoms: _77  and  _79
REMARK   32  A    between atoms: _79  and  _80
REMARK   33  A    between atoms: _79  and  _82
REMARK   34  A    between atoms: _82  and  _83
REMARK   35  A    between atoms: _83  and  _84
REMARK   36  A    between atoms: _84  and  _85
REMARK   37  A    between atoms: _94  and  _96
REMARK   38  A    between atoms: _96  and  _97
REMARK   39  A    between atoms: _96  and  _99
REMARK   40  A    between atoms: _99  and  _100
REMARK   41  A    between atoms: _104  and  _105
REMARK   42  A    between atoms: _111  and  _112
REMARK   43  A    between atoms: _117  and  _119
REMARK   44  A    between atoms: _119  and  _120
REMARK   45  A    between atoms: _119  and  _122
REMARK   46  A    between atoms: _122  and  _123
REMARK   47  A    between atoms: _126  and  _128
REMARK   48  A    between atoms: _128  and  _129
REMARK   49  A    between atoms: _132  and  _133
REMARK   50  A    between atoms: _138  and  _140
REMARK   51  A    between atoms: _140  and  _141
REMARK   52  A    between atoms: _140  and  _143
REMARK   53  A    between atoms: _143  and  _144
REMARK   54  A    between atoms: _144  and  _145
REMARK   55  A    between atoms: _150  and  _152
REMARK   56  A    between atoms: _152  and  _153
REMARK   57  A    between atoms: _152  and  _155
REMARK   58  A    between atoms: _155  and  _156
REMARK   59  A    between atoms: _156  and  _157
REMARK   60  A    between atoms: _163  and  _164
REMARK   61  A    between atoms: _169  and  _171
REMARK   62  A    between atoms: _171  and  _172
REMARK   63  A    between atoms: _171  and  _174
REMARK   64  A    between atoms: _174  and  _175
REMARK   65  A    between atoms: _178  and  _180
REMARK   66  A    between atoms: _180  and  _181
REMARK   67  A    between atoms: _180  and  _183
REMARK   68  A    between atoms: _183  and  _184
REMARK   69  A    between atoms: _189  and  _190
REMARK   70  A    between atoms: _192  and  _194
REMARK   71  A    between atoms: _194  and  _195
REMARK   72  A    between atoms: _194  and  _197
REMARK   73  A    between atoms: _197  and  _198
REMARK   74  A    between atoms: _201  and  _203
REMARK   75  A    between atoms: _203  and  _204
REMARK   76  A    between atoms: _203  and  _206
REMARK   77  A    between atoms: _206  and  _207
REMARK   78  A    between atoms: _212  and  _214
REMARK   79  A    between atoms: _214  and  _215
REMARK   80  A    between atoms: _218  and  _220
REMARK   81  A    between atoms: _220  and  _221
REMARK   82  A    between atoms: _220  and  _223
REMARK   83  A    between atoms: _223  and  _224
REMARK   84  A    between atoms: _227  and  _229
REMARK   85  A    between atoms: _229  and  _230
REMARK   86  A    between atoms: _229  and  _232
REMARK   87  A    between atoms: _232  and  _233
REMARK   88  A    between atoms: _236  and  _238
REMARK   89  A    between atoms: _238  and  _239
REMARK   90  A    between atoms: _238  and  _241
REMARK   91  A    between atoms: _241  and  _242
REMARK   92  A    between atoms: _245  and  _247
REMARK   93  A    between atoms: _247  and  _248
REMARK   94  A    between atoms: _247  and  _250
REMARK   95  A    between atoms: _250  and  _251
REMARK   96  A    between atoms: _251  and  _252
REMARK   97  A    between atoms: _257  and  _259
REMARK   98  A    between atoms: _259  and  _260
REMARK   99  A    between atoms: _259  and  _262
REMARK  100  A    between atoms: _262  and  _263
REMARK  101  A    between atoms: _263  and  _264
REMARK  102  A    between atoms: _264  and  _265
REMARK  103  A    between atoms: _274  and  _276
REMARK  104  A    between atoms: _276  and  _277
REMARK  105  A    between atoms: _276  and  _279
REMARK  106  A    between atoms: _279  and  _280
REMARK  107  A    between atoms: _280  and  _281
REMARK  108  A    between atoms: _284  and  _286
REMARK  109  A    between atoms: _286  and  _287
REMARK  110  A    between atoms: _286  and  _289
REMARK  111  A    between atoms: _289  and  _290
REMARK  112  A    between atoms: _293  and  _295
REMARK  113  A    between atoms: _295  and  _296
REMARK  114  A    between atoms: _295  and  _298
REMARK  115  A    between atoms: _298  and  _299
REMARK  116  A    between atoms: _299  and  _300
REMARK  117  A    between atoms: _300  and  _301
REMARK  118  A    between atoms: _310  and  _312
REMARK  119  A    between atoms: _312  and  _313
REMARK  120  A    between atoms: _312  and  _315
REMARK  121  A    between atoms: _315  and  _316
REMARK  122  A    between atoms: _316  and  _317
REMARK  123  A    between atoms: _317  and  _318
REMARK  124  A    between atoms: _318  and  _319
REMARK  125  A    between atoms: _323  and  _325
REMARK  126  A    between atoms: _325  and  _326
REMARK  127  A    between atoms: _329  and  _331
REMARK  128  A    between atoms: _331  and  _332
REMARK  129  A    between atoms: _331  and  _334
REMARK  130  A    between atoms: _334  and  _335
REMARK  131  A    between atoms: _335  and  _336
REMARK  132  A    between atoms: _339  and  _341
REMARK  133  A    between atoms: _341  and  _342
REMARK  134  A    between atoms: _341  and  _344
REMARK  135  A    between atoms: _344  and  _345
REMARK  136  A    between atoms: _345  and  _346
REMARK  137  A    between atoms: _346  and  _347
REMARK  138  A    between atoms: _356  and  _358
REMARK  139  A    between atoms: _358  and  _359
REMARK  140  A    between atoms: _358  and  _361
REMARK  141  A    between atoms: _361  and  _362
REMARK  142  A    between atoms: _372  and  _374
REMARK  143  A    between atoms: _374  and  _375
REMARK  144  A    between atoms: _378  and  _379
REMARK  145  A    between atoms: _384  and  _386
REMARK  146  A    between atoms: _386  and  _387
REMARK  147  A    between atoms: _386  and  _389
REMARK  148  A    between atoms: _389  and  _390
REMARK  149  A    between atoms: _390  and  _391
REMARK  150  A    between atoms: _391  and  _392
REMARK  151  A    between atoms: _401  and  _403
REMARK  152  A    between atoms: _403  and  _404
REMARK  153  A    between atoms: _403  and  _406
REMARK  154  A    between atoms: _406  and  _407
REMARK  155  A    between atoms: _410  and  _412
REMARK  156  A    between atoms: _412  and  _413
REMARK  157  A    between atoms: _412  and  _415
REMARK  158  A    between atoms: _415  and  _416
REMARK  159  A    between atoms: _419  and  _421
REMARK  160  A    between atoms: _421  and  _422
REMARK  161  A    between atoms: _421  and  _424
REMARK  162  A    between atoms: _424  and  _425
REMARK  163  A    between atoms: _428  and  _430
REMARK  164  A    between atoms: _430  and  _431
REMARK  165  A    between atoms: _430  and  _433
REMARK  166  A    between atoms: _433  and  _434
REMARK  167  A    between atoms: _437  and  _439
REMARK  168  A    between atoms: _439  and  _440
REMARK  169  A    between atoms: _439  and  _442
REMARK  170  A    between atoms: _442  and  _443
REMARK  171  A    between atoms: _446  and  _448
REMARK  172  A    between atoms: _448  and  _449
REMARK  173  A    between atoms: _448  and  _451
REMARK  174  A    between atoms: _451  and  _452
REMARK  175  A    between atoms: _452  and  _453
REMARK  176  A    between atoms: _455  and  _457
REMARK  177  A    between atoms: _457  and  _458
REMARK  178  A    between atoms: _457  and  _460
REMARK  179  A    between atoms: _460  and  _461
REMARK  180  A    between atoms: _464  and  _466
REMARK  181  A    between atoms: _466  and  _467
REMARK  182  A    between atoms: _466  and  _469
REMARK  183  A    between atoms: _469  and  _470
REMARK  184  A    between atoms: _476  and  _478
REMARK  185  A    between atoms: _478  and  _479
REMARK  186  A    between atoms: _478  and  _481
REMARK  187  A    between atoms: _481  and  _482
REMARK  188  A    between atoms: _485  and  _487
REMARK  189  A    between atoms: _487  and  _488
REMARK  190  A    between atoms: _487  and  _490
REMARK  191  A    between atoms: _490  and  _491
REMARK  192  A    between atoms: _494  and  _496
REMARK  193  A    between atoms: _496  and  _497
REMARK  194  A    between atoms: _496  and  _499
REMARK  195  A    between atoms: _499  and  _500
REMARK  196  A    between atoms: _500  and  _501
REMARK  197  A    between atoms: _504  and  _506
REMARK  198  A    between atoms: _506  and  _507
REMARK  199  A    between atoms: _506  and  _509
REMARK  200  A    between atoms: _509  and  _510
REMARK  201  A    between atoms: _510  and  _511
REMARK  202  A    between atoms: _511  and  _512
REMARK  203  A    between atoms: _521  and  _523
REMARK  204  A    between atoms: _523  and  _524
REMARK  205  A    between atoms: _523  and  _526
REMARK  206  A    between atoms: _526  and  _527
REMARK  207  A    between atoms: _530  and  _532
REMARK  208  A    between atoms: _532  and  _533
REMARK  209  A    between atoms: _532  and  _535
REMARK  210  A    between atoms: _535  and  _536
REMARK  211  A    between atoms: _539  and  _541
REMARK  212  A    between atoms: _541  and  _542
REMARK  213  A    between atoms: _541  and  _544
REMARK  214  A    between atoms: _548  and  _549
REMARK  215  A    between atoms: _554  and  _556
REMARK  216  A    between atoms: _556  and  _557
REMARK  217  A    between atoms: _556  and  _559
REMARK  218  A    between atoms: _559  and  _560
REMARK  219  A    between atoms: _565  and  _567
REMARK  220  A    between atoms: _567  and  _568
REMARK  221  A    between atoms: _567  and  _570
REMARK  222  A    between atoms: _570  and  _571
REMARK  223  A    between atoms: _576  and  _577
REMARK  224  A    between atoms: _579  and  _581
REMARK  225  A    between atoms: _581  and  _582
REMARK  226  A    between atoms: _581  and  _584
REMARK  227  A    between atoms: _584  and  _585
REMARK  228  A    between atoms: _588  and  _590
REMARK  229  A    between atoms: _590  and  _591
REMARK  230  A    between atoms: _590  and  _593
REMARK  231  A    between atoms: _593  and  _594
REMARK  232  A    between atoms: _594  and  _595
REMARK  233  A    between atoms: _595  and  _596
REMARK  234  A    between atoms: _605  and  _607
REMARK  235  A    between atoms: _607  and  _608
REMARK  236  A    between atoms: _610  and  _612
REMARK  237  A    between atoms: _612  and  _613
REMARK  238  A    between atoms: _612  and  _615
REMARK  239  A    between atoms: _615  and  _616
REMARK  240  A    between atoms: _622  and  _624
REMARK  241  A    between atoms: _624  and  _625
REMARK  242  A    between atoms: _624  and  _627
REMARK  243  A    between atoms: _627  and  _628
REMARK  244  A    between atoms: _628  and  _629
REMARK  245  A    between atoms: _631  and  _633
REMARK  246  A    between atoms: _633  and  _634
REMARK  247  A    between atoms: _633  and  _636
REMARK  248  A    between atoms: _636  and  _637
REMARK                            x       y       z     vdW  Elec       q    Type
REMARK                         _______ _______ _______ _____ _____    ______ ____
ROOT
ATOM      1  O   HOH     1       6.971  29.348   1.235  0.00  0.00    +0.000 OA
ENDROOT
TORSDOF 0
REMARK  Name = ../refined-set-2016/4f7v/4f7v_pocket.pdb
REMARK  248 active torsions:
REMARK  status: ('A' for Active; 'I' for Inactive)
REMARK    1  A    between atoms: _1  and  _3
REMARK    2  A    between atoms: _3  and  _4
REMARK    3  A    between atoms: _3  and  _6
REMARK    4  A    between atoms: _6  and  _7
REMARK    5  A    between atoms: _12  and  _13
REMARK    6  A    between atoms: _15  and  _17
REMARK    7  A    between atoms: _17  and  _18
REMARK    8  A    between atoms: _17  and  _20
REMARK    9  A    between atoms: _20  and  _21
REMARK   10  A    between atoms: _24  and  _26
REMARK   11  A    between atoms: _26  and  _27
REMARK   12  A    between atoms: _30  and  _32
REMARK   13  A    between atoms: _32  and  _33
REMARK   14  A    between atoms: _32  and  _35
REMARK   15  A    between atoms: _35  and  _36
REMARK   16  A    between atoms: _39  and  _41
REMARK   17  A    between atoms: _41  and  _42
REMARK   18  A    between atoms: _44  and  _46
REMARK   19  A    between atoms: _46  and  _47
REMARK   20  A    between atoms: _46  and  _49
REMARK   21  A    between atoms: _49  and  _50
REMARK   22  A    between atoms: _52  and  _54
REMARK   23  A    between atoms: _54  and  _55
REMARK   24  A    between atoms: _54  and  _57
REMARK   25  A    between atoms: _57  and  _58
REMARK   26  A    between atoms: _63  and  _65
REMARK   27  A    between atoms: _65  and  _66
REMARK   28  A    between atoms: _65  and  _68
REMARK   29  A    between atoms: _68  and  _69
REMARK   30  A    between atoms: _74  and  _75
REMARK   31  A    between atoms: _77  and  _79
REMARK   32  A    between atoms: _79  and  _80
REMARK   33  A    between atoms: _79  and  _82
REMARK   34  A    between atoms: _82  and  _83
REMARK   35  A    between atoms: _83  and  _84
REMARK   36  A    between atoms: _84  and  _85
REMARK   37  A    between atoms: _94  and  _96
REMARK   38  A    between atoms: _96  and  _97
REMARK   39  A    between atoms: _96  and  _99
REMARK   40  A    between atoms: _99  and  _100
REMARK   41  A    between atoms: _104  and  _105
REMARK   42  A    between atoms: _111  and  _112
REMARK   43  A    between atoms: _117  and  _119
REMARK   44  A    between atoms: _119  and  _120
REMARK   45  A    between atoms: _119  and  _122
REMARK   46  A    between atoms: _122  and  _123
REMARK   47  A    between atoms: _126  and  _128
REMARK   48  A    between atoms: _128  and  _129
REMARK   49  A    between atoms: _132  and  _133
REMARK   50  A    between atoms: _138  and  _140
REMARK   51  A    between atoms: _140  and  _141
REMARK   52  A    between atoms: _140  and  _143
REMARK   53  A    between atoms: _143  and  _144
REMARK   54  A    between atoms: _144  and  _145
REMARK   55  A    between atoms: _150  and  _152
REMARK   56  A    between atoms: _152  and  _153
REMARK   57  A    between atoms: _152  and  _155
REMARK   58  A    between atoms: _155  and  _156
REMARK   59  A    between atoms: _156  and  _157
REMARK   60  A    between atoms: _163  and  _164
REMARK   61  A    between atoms: _169  and  _171
REMARK   62  A    between atoms: _171  and  _172
REMARK   63  A    between atoms: _171  and  _174
REMARK   64  A    between atoms: _174  and  _175
REMARK   65  A    between atoms: _178  and  _180
REMARK   66  A    between atoms: _180  and  _181
REMARK   67  A    between atoms: _180  and  _183
REMARK   68  A    between atoms: _183  and  _184
REMARK   69  A    between atoms: _189  and  _190
REMARK   70  A    between atoms: _192  and  _194
REMARK   71  A    between atoms: _194  and  _195
REMARK   72  A    between atoms: _194  and  _197
REMARK   73  A    between atoms: _197  and  _198
REMARK   74  A    between atoms: _201  and  _203
REMARK   75  A    between atoms: _203  and  _204
REMARK   76  A    between atoms: _203  and  _206
REMARK   77  A    between atoms: _206  and  _207
REMARK   78  A    between atoms: _212  and  _214
REMARK   79  A    between atoms: _214  and  _215
REMARK   80  A    between atoms: _218  and  _220
REMARK   81  A    between atoms: _220  and  _221
REMARK   82  A    between atoms: _220  and  _223
REMARK   83  A    between atoms: _223  and  _224
REMARK   84  A    between atoms: _227  and  _229
REMARK   85  A    between atoms: _229  and  _230
REMARK   86  A    between atoms: _229  and  _232
REMARK   87  A    between atoms: _232  and  _233
REMARK   88  A    between atoms: _236  and  _238
REMARK   89  A    between atoms: _238  and  _239
REMARK   90  A    between atoms: _238  and  _241
REMARK   91  A    between atoms: _241  and  _242
REMARK   92  A    between atoms: _245  and  _247
REMARK   93  A    between atoms: _247  and  _248
REMARK   94  A    between atoms: _247  and  _250
REMARK   95  A    between atoms: _250  and  _251
REMARK   96  A    between atoms: _251  and  _252
REMARK   97  A    between atoms: _257  and  _259
REMARK   98  A    between atoms: _259  and  _260
REMARK   99  A    between atoms: _259  and  _262
REMARK  100  A    between atoms: _262  and  _263
REMARK  101  A    between atoms: _263  and  _264
REMARK  102  A    between atoms: _264  and  _265
REMARK  103  A    between atoms: _274  and  _276
REMARK  104  A    between atoms: _276  and  _277
REMARK  105  A    between atoms: _276  and  _279
REMARK  106  A    between atoms: _279  and  _280
REMARK  107  A    between atoms: _280  and  _281
REMARK  108  A    between atoms: _284  and  _286
REMARK  109  A    between atoms: _286  and  _287
REMARK  110  A    between atoms: _286  and  _289
REMARK  111  A    between atoms: _289  and  _290
REMARK  112  A    between atoms: _293  and  _295
REMARK  113  A    between atoms: _295  and  _296
REMARK  114  A    between atoms: _295  and  _298
REMARK  115  A    between atoms: _298  and  _299
REMARK  116  A    between atoms: _299  and  _300
REMARK  117  A    between atoms: _300  and  _301
REMARK  118  A    between atoms: _310  and  _312
REMARK  119  A    between atoms: _312  and  _313
REMARK  120  A    between atoms: _312  and  _315
REMARK  121  A    between atoms: _315  and  _316
REMARK  122  A    between atoms: _316  and  _317
REMARK  123  A    between atoms: _317  and  _318
REMARK  124  A    between atoms: _318  and  _319
REMARK  125  A    between atoms: _323  and  _325
REMARK  126  A    between atoms: _325  and  _326
REMARK  127  A    between atoms: _329  and  _331
REMARK  128  A    between atoms: _331  and  _332
REMARK  129  A    between atoms: _331  and  _334
REMARK  130  A    between atoms: _334  and  _335
REMARK  131  A    between atoms: _335  and  _336
REMARK  132  A    between atoms: _339  and  _341
REMARK  133  A    between atoms: _341  and  _342
REMARK  134  A    between atoms: _341  and  _344
REMARK  135  A    between atoms: _344  and  _345
REMARK  136  A    between atoms: _345  and  _346
REMARK  137  A    between atoms: _346  and  _347
REMARK  138  A    between atoms: _356  and  _358
REMARK  139  A    between atoms: _358  and  _359
REMARK  140  A    between atoms: _358  and  _361
REMARK  141  A    between atoms: _361  and  _362
REMARK  142  A    between atoms: _372  and  _374
REMARK  143  A    between atoms: _374  and  _375
REMARK  144  A    between atoms: _378  and  _379
REMARK  145  A    between atoms: _384  and  _386
REMARK  146  A    between atoms: _386  and  _387
REMARK  147  A    between atoms: _386  and  _389
REMARK  148  A    between atoms: _389  and  _390
REMARK  149  A    between atoms: _390  and  _391
REMARK  150  A    between atoms: _391  and  _392
REMARK  151  A    between atoms: _401  and  _403
REMARK  152  A    between atoms: _403  and  _404
REMARK  153  A    between atoms: _403  and  _406
REMARK  154  A    between atoms: _406  and  _407
REMARK  155  A    between atoms: _410  and  _412
REMARK  156  A    between atoms: _412  and  _413
REMARK  157  A    between atoms: _412  and  _415
REMARK  158  A    between atoms: _415  and  _416
REMARK  159  A    between atoms: _419  and  _421
REMARK  160  A    between atoms: _421  and  _422
REMARK  161  A    between atoms: _421  and  _424
REMARK  162  A    between atoms: _424  and  _425
REMARK  163  A    between atoms: _428  and  _430
REMARK  164  A    between atoms: _430  and  _431
REMARK  165  A    between atoms: _430  and  _433
REMARK  166  A    between atoms: _433  and  _434
REMARK  167  A    between atoms: _437  and  _439
REMARK  168  A    between atoms: _439  and  _440
REMARK  169  A    between atoms: _439  and  _442
REMARK  170  A    between atoms: _442  and  _443
REMARK  171  A    between atoms: _446  and  _448
REMARK  172  A    between atoms: _448  and  _449
REMARK  173  A    between atoms: _448  and  _451
REMARK  174  A    between atoms: _451  and  _452
REMARK  175  A    between atoms: _452  and  _453
REMARK  176  A    between atoms: _455  and  _457
REMARK  177  A    between atoms: _457  and  _458
REMARK  178  A    between atoms: _457  and  _460
REMARK  179  A    between atoms: _460  and  _461
REMARK  180  A    between atoms: _464  and  _466
REMARK  181  A    between atoms: _466  and  _467
REMARK  182  A    between atoms: _466  and  _469
REMARK  183  A    between atoms: _469  and  _470
REMARK  184  A    between atoms: _476  and  _478
REMARK  185  A    between atoms: _478  and  _479
REMARK  186  A    between atoms: _478  and  _481
REMARK  187  A    between atoms: _481  and  _482
REMARK  188  A    between atoms: _485  and  _487
REMARK  189  A    between atoms: _487  and  _488
REMARK  190  A    between atoms: _487  and  _490
REMARK  191  A    between atoms: _490  and  _491
REMARK  192  A    between atoms: _494  and  _496
REMARK  193  A    between atoms: _496  and  _497
REMARK  194  A    between atoms: _496  and  _499
REMARK  195  A    between atoms: _499  and  _500
REMARK  196  A    between atoms: _500  and  _501
REMARK  197  A    between atoms: _504  and  _506
REMARK  198  A    between atoms: _506  and  _507
REMARK  199  A    between atoms: _506  and  _509
REMARK  200  A    between atoms: _509  and  _510
REMARK  201  A    between atoms: _510  and  _511
REMARK  202  A    between atoms: _511  and  _512
REMARK  203  A    between atoms: _521  and  _523
REMARK  204  A    between atoms: _523  and  _524
REMARK  205  A    between atoms: _523  and  _526
REMARK  206  A    between atoms: _526  and  _527
REMARK  207  A    between atoms: _530  and  _532
REMARK  208  A    between atoms: _532  and  _533
REMARK  209  A    between atoms: _532  and  _535
REMARK  210  A    between atoms: _535  and  _536
REMARK  211  A    between atoms: _539  and  _541
REMARK  212  A    between atoms: _541  and  _542
REMARK  213  A    between atoms: _541  and  _544
REMARK  214  A    between atoms: _548  and  _549
REMARK  215  A    between atoms: _554  and  _556
REMARK  216  A    between atoms: _556  and  _557
REMARK  217  A    between atoms: _556  and  _559
REMARK  218  A    between atoms: _559  and  _560
REMARK  219  A    between atoms: _565  and  _567
REMARK  220  A    between atoms: _567  and  _568
REMARK  221  A    between atoms: _567  and  _570
REMARK  222  A    between atoms: _570  and  _571
REMARK  223  A    between atoms: _576  and  _577
REMARK  224  A    between atoms: _579  and  _581
REMARK  225  A    between atoms: _581  and  _582
REMARK  226  A    between atoms: _581  and  _584
REMARK  227  A    between atoms: _584  and  _585
REMARK  228  A    between atoms: _588  and  _590
REMARK  229  A    between atoms: _590  and  _591
REMARK  230  A    between atoms: _590  and  _593
REMARK  231  A    between atoms: _593  and  _594
REMARK  232  A    between atoms: _594  and  _595
REMARK  233  A    between atoms: _595  and  _596
REMARK  234  A    between atoms: _605  and  _607
REMARK  235  A    between atoms: _607  and  _608
REMARK  236  A    between atoms: _610  and  _612
REMARK  237  A    between atoms: _612  and  _613
REMARK  238  A    between atoms: _612  and  _615
REMARK  239  A    between atoms: _615  and  _616
REMARK  240  A    between atoms: _622  and  _624
REMARK  241  A    between atoms: _624  and  _625
REMARK  242  A    between atoms: _624  and  _627
REMARK  243  A    between atoms: _627  and  _628
REMARK  244  A    between atoms: _628  and  _629
REMARK  245  A    between atoms: _631  and  _633
REMARK  246  A    between atoms: _633  and  _634
REMARK  247  A    between atoms: _633  and  _636
REMARK  248  A    between atoms: _636  and  _637
REMARK                            x       y       z     vdW  Elec       q    Type
REMARK                         _______ _______ _______ _____ _____    ______ ____
ROOT
ATOM      1  O   HOH     1       2.101  15.571  15.177  0.00  0.00    +0.000 OA
ENDROOT
TORSDOF 0
REMARK  Name = ../refined-set-2016/4f7v/4f7v_pocket.pdb
REMARK  248 active torsions:
REMARK  status: ('A' for Active; 'I' for Inactive)
REMARK    1  A    between atoms: _1  and  _3
REMARK    2  A    between atoms: _3  and  _4
REMARK    3  A    between atoms: _3  and  _6
REMARK    4  A    between atoms: _6  and  _7
REMARK    5  A    between atoms: _12  and  _13
REMARK    6  A    between atoms: _15  and  _17
REMARK    7  A    between atoms: _17  and  _18
REMARK    8  A    between atoms: _17  and  _20
REMARK    9  A    between atoms: _20  and  _21
REMARK   10  A    between atoms: _24  and  _26
REMARK   11  A    between atoms: _26  and  _27
REMARK   12  A    between atoms: _30  and  _32
REMARK   13  A    between atoms: _32  and  _33
REMARK   14  A    between atoms: _32  and  _35
REMARK   15  A    between atoms: _35  and  _36
REMARK   16  A    between atoms: _39  and  _41
REMARK   17  A    between atoms: _41  and  _42
REMARK   18  A    between atoms: _44  and  _46
REMARK   19  A    between atoms: _46  and  _47
REMARK   20  A    between atoms: _46  and  _49
REMARK   21  A    between atoms: _49  and  _50
REMARK   22  A    between atoms: _52  and  _54
REMARK   23  A    between atoms: _54  and  _55
REMARK   24  A    between atoms: _54  and  _57
REMARK   25  A    between atoms: _57  and  _58
REMARK   26  A    between atoms: _63  and  _65
REMARK   27  A    between atoms: _65  and  _66
REMARK   28  A    between atoms: _65  and  _68
REMARK   29  A    between atoms: _68  and  _69
REMARK   30  A    between atoms: _74  and  _75
REMARK   31  A    between atoms: _77  and  _79
REMARK   32  A    between atoms: _79  and  _80
REMARK   33  A    between atoms: _79  and  _82
REMARK   34  A    between atoms: _82  and  _83
REMARK   35  A    between atoms: _83  and  _84
REMARK   36  A    between atoms: _84  and  _85
REMARK   37  A    between atoms: _94  and  _96
REMARK   38  A    between atoms: _96  and  _97
REMARK   39  A    between atoms: _96  and  _99
REMARK   40  A    between atoms: _99  and  _100
REMARK   41  A    between atoms: _104  and  _105
REMARK   42  A    between atoms: _111  and  _112
REMARK   43  A    between atoms: _117  and  _119
REMARK   44  A    between atoms: _119  and  _120
REMARK   45  A    between atoms: _119  and  _122
REMARK   46  A    between atoms: _122  and  _123
REMARK   47  A    between atoms: _126  and  _128
REMARK   48  A    between atoms: _128  and  _129
REMARK   49  A    between atoms: _132  and  _133
REMARK   50  A    between atoms: _138  and  _140
REMARK   51  A    between atoms: _140  and  _141
REMARK   52  A    between atoms: _140  and  _143
REMARK   53  A    between atoms: _143  and  _144
REMARK   54  A    between atoms: _144  and  _145
REMARK   55  A    between atoms: _150  and  _152
REMARK   56  A    between atoms: _152  and  _153
REMARK   57  A    between atoms: _152  and  _155
REMARK   58  A    between atoms: _155  and  _156
REMARK   59  A    between atoms: _156  and  _157
REMARK   60  A    between atoms: _163  and  _164
REMARK   61  A    between atoms: _169  and  _171
REMARK   62  A    between atoms: _171  and  _172
REMARK   63  A    between atoms: _171  and  _174
REMARK   64  A    between atoms: _174  and  _175
REMARK   65  A    between atoms: _178  and  _180
REMARK   66  A    between atoms: _180  and  _181
REMARK   67  A    between atoms: _180  and  _183
REMARK   68  A    between atoms: _183  and  _184
REMARK   69  A    between atoms: _189  and  _190
REMARK   70  A    between atoms: _192  and  _194
REMARK   71  A    between atoms: _194  and  _195
REMARK   72  A    between atoms: _194  and  _197
REMARK   73  A    between atoms: _197  and  _198
REMARK   74  A    between atoms: _201  and  _203
REMARK   75  A    between atoms: _203  and  _204
REMARK   76  A    between atoms: _203  and  _206
REMARK   77  A    between atoms: _206  and  _207
REMARK   78  A    between atoms: _212  and  _214
REMARK   79  A    between atoms: _214  and  _215
REMARK   80  A    between atoms: _218  and  _220
REMARK   81  A    between atoms: _220  and  _221
REMARK   82  A    between atoms: _220  and  _223
REMARK   83  A    between atoms: _223  and  _224
REMARK   84  A    between atoms: _227  and  _229
REMARK   85  A    between atoms: _229  and  _230
REMARK   86  A    between atoms: _229  and  _232
REMARK   87  A    between atoms: _232  and  _233
REMARK   88  A    between atoms: _236  and  _238
REMARK   89  A    between atoms: _238  and  _239
REMARK   90  A    between atoms: _238  and  _241
REMARK   91  A    between atoms: _241  and  _242
REMARK   92  A    between atoms: _245  and  _247
REMARK   93  A    between atoms: _247  and  _248
REMARK   94  A    between atoms: _247  and  _250
REMARK   95  A    between atoms: _250  and  _251
REMARK   96  A    between atoms: _251  and  _252
REMARK   97  A    between atoms: _257  and  _259
REMARK   98  A    between atoms: _259  and  _260
REMARK   99  A    between atoms: _259  and  _262
REMARK  100  A    between atoms: _262  and  _263
REMARK  101  A    between atoms: _263  and  _264
REMARK  102  A    between atoms: _264  and  _265
REMARK  103  A    between atoms: _274  and  _276
REMARK  104  A    between atoms: _276  and  _277
REMARK  105  A    between atoms: _276  and  _279
REMARK  106  A    between atoms: _279  and  _280
REMARK  107  A    between atoms: _280  and  _281
REMARK  108  A    between atoms: _284  and  _286
REMARK  109  A    between atoms: _286  and  _287
REMARK  110  A    between atoms: _286  and  _289
REMARK  111  A    between atoms: _289  and  _290
REMARK  112  A    between atoms: _293  and  _295
REMARK  113  A    between atoms: _295  and  _296
REMARK  114  A    between atoms: _295  and  _298
REMARK  115  A    between atoms: _298  and  _299
REMARK  116  A    between atoms: _299  and  _300
REMARK  117  A    between atoms: _300  and  _301
REMARK  118  A    between atoms: _310  and  _312
REMARK  119  A    between atoms: _312  and  _313
REMARK  120  A    between atoms: _312  and  _315
REMARK  121  A    between atoms: _315  and  _316
REMARK  122  A    between atoms: _316  and  _317
REMARK  123  A    between atoms: _317  and  _318
REMARK  124  A    between atoms: _318  and  _319
REMARK  125  A    between atoms: _323  and  _325
REMARK  126  A    between atoms: _325  and  _326
REMARK  127  A    between atoms: _329  and  _331
REMARK  128  A    between atoms: _331  and  _332
REMARK  129  A    between atoms: _331  and  _334
REMARK  130  A    between atoms: _334  and  _335
REMARK  131  A    between atoms: _335  and  _336
REMARK  132  A    between atoms: _339  and  _341
REMARK  133  A    between atoms: _341  and  _342
REMARK  134  A    between atoms: _341  and  _344
REMARK  135  A    between atoms: _344  and  _345
REMARK  136  A    between atoms: _345  and  _346
REMARK  137  A    between atoms: _346  and  _347
REMARK  138  A    between atoms: _356  and  _358
REMARK  139  A    between atoms: _358  and  _359
REMARK  140  A    between atoms: _358  and  _361
REMARK  141  A    between atoms: _361  and  _362
REMARK  142  A    between atoms: _372  and  _374
REMARK  143  A    between atoms: _374  and  _375
REMARK  144  A    between atoms: _378  and  _379
REMARK  145  A    between atoms: _384  and  _386
REMARK  146  A    between atoms: _386  and  _387
REMARK  147  A    between atoms: _386  and  _389
REMARK  148  A    between atoms: _389  and  _390
REMARK  149  A    between atoms: _390  and  _391
REMARK  150  A    between atoms: _391  and  _392
REMARK  151  A    between atoms: _401  and  _403
REMARK  152  A    between atoms: _403  and  _404
REMARK  153  A    between atoms: _403  and  _406
REMARK  154  A    between atoms: _406  and  _407
REMARK  155  A    between atoms: _410  and  _412
REMARK  156  A    between atoms: _412  and  _413
REMARK  157  A    between atoms: _412  and  _415
REMARK  158  A    between atoms: _415  and  _416
REMARK  159  A    between atoms: _419  and  _421
REMARK  160  A    between atoms: _421  and  _422
REMARK  161  A    between atoms: _421  and  _424
REMARK  162  A    between atoms: _424  and  _425
REMARK  163  A    between atoms: _428  and  _430
REMARK  164  A    between atoms: _430  and  _431
REMARK  165  A    between atoms: _430  and  _433
REMARK  166  A    between atoms: _433  and  _434
REMARK  167  A    between atoms: _437  and  _439
REMARK  168  A    between atoms: _439  and  _440
REMARK  169  A    between atoms: _439  and  _442
REMARK  170  A    between atoms: _442  and  _443
REMARK  171  A    between atoms: _446  and  _448
REMARK  172  A    between atoms: _448  and  _449
REMARK  173  A    between atoms: _448  and  _451
REMARK  174  A    between atoms: _451  and  _452
REMARK  175  A    between atoms: _452  and  _453
REMARK  176  A    between atoms: _455  and  _457
REMARK  177  A    between atoms: _457  and  _458
REMARK  178  A    between atoms: _457  and  _460
REMARK  179  A    between atoms: _460  and  _461
REMARK  180  A    between atoms: _464  and  _466
REMARK  181  A    between atoms: _466  and  _467
REMARK  182  A    between atoms: _466  and  _469
REMARK  183  A    between atoms: _469  and  _470
REMARK  184  A    between atoms: _476  and  _478
REMARK  185  A    between atoms: _478  and  _479
REMARK  186  A    between atoms: _478  and  _481
REMARK  187  A    between atoms: _481  and  _482
REMARK  188  A    between atoms: _485  and  _487
REMARK  189  A    between atoms: _487  and  _488
REMARK  190  A    between atoms: _487  and  _490
REMARK  191  A    between atoms: _490  and  _491
REMARK  192  A    between atoms: _494  and  _496
REMARK  193  A    between atoms: _496  and  _497
REMARK  194  A    between atoms: _496  and  _499
REMARK  195  A    between atoms: _499  and  _500
REMARK  196  A    between atoms: _500  and  _501
REMARK  197  A    between atoms: _504  and  _506
REMARK  198  A    between atoms: _506  and  _507
REMARK  199  A    between atoms: _506  and  _509
REMARK  200  A    between atoms: _509  and  _510
REMARK  201  A    between atoms: _510  and  _511
REMARK  202  A    between atoms: _511  and  _512
REMARK  203  A    between atoms: _521  and  _523
REMARK  204  A    between atoms: _523  and  _524
REMARK  205  A    between atoms: _523  and  _526
REMARK  206  A    between atoms: _526  and  _527
REMARK  207  A    between atoms: _530  and  _532
REMARK  208  A    between atoms: _532  and  _533
REMARK  209  A    between atoms: _532  and  _535
REMARK  210  A    between atoms: _535  and  _536
REMARK  211  A    between atoms: _539  and  _541
REMARK  212  A    between atoms: _541  and  _542
REMARK  213  A    between atoms: _541  and  _544
REMARK  214  A    between atoms: _548  and  _549
REMARK  215  A    between atoms: _554  and  _556
REMARK  216  A    between atoms: _556  and  _557
REMARK  217  A    between atoms: _556  and  _559
REMARK  218  A    between atoms: _559  and  _560
REMARK  219  A    between atoms: _565  and  _567
REMARK  220  A    between atoms: _567  and  _568
REMARK  221  A    between atoms: _567  and  _570
REMARK  222  A    between atoms: _570  and  _571
REMARK  223  A    between atoms: _576  and  _577
REMARK  224  A    between atoms: _579  and  _581
REMARK  225  A    between atoms: _581  and  _582
REMARK  226  A    between atoms: _581  and  _584
REMARK  227  A    between atoms: _584  and  _585
REMARK  228  A    between atoms: _588  and  _590
REMARK  229  A    between atoms: _590  and  _591
REMARK  230  A    between atoms: _590  and  _593
REMARK  231  A    between atoms: _593  and  _594
REMARK  232  A    between atoms: _594  and  _595
REMARK  233  A    between atoms: _595  and  _596
REMARK  234  A    between atoms: _605  and  _607
REMARK  235  A    between atoms: _607  and  _608
REMARK  236  A    between atoms: _610  and  _612
REMARK  237  A    between atoms: _612  and  _613
REMARK  238  A    between atoms: _612  and  _615
REMARK  239  A    between atoms: _615  and  _616
REMARK  240  A    between atoms: _622  and  _624
REMARK  241  A    between atoms: _624  and  _625
REMARK  242  A    between atoms: _624  and  _627
REMARK  243  A    between atoms: _627  and  _628
REMARK  244  A    between atoms: _628  and  _629
REMARK  245  A    between atoms: _631  and  _633
REMARK  246  A    between atoms: _633  and  _634
REMARK  247  A    between atoms: _633  and  _636
REMARK  248  A    between atoms: _636  and  _637
REMARK                            x       y       z     vdW  Elec       q    Type
REMARK                         _______ _______ _______ _____ _____    ______ ____
ROOT
ATOM      1  O   HOH     1      -2.078  22.678   7.991  0.00  0.00    +0.000 OA
ENDROOT
TORSDOF 0
REMARK  Name = ../refined-set-2016/4f7v/4f7v_pocket.pdb
REMARK  248 active torsions:
REMARK  status: ('A' for Active; 'I' for Inactive)
REMARK    1  A    between atoms: _1  and  _3
REMARK    2  A    between atoms: _3  and  _4
REMARK    3  A    between atoms: _3  and  _6
REMARK    4  A    between atoms: _6  and  _7
REMARK    5  A    between atoms: _12  and  _13
REMARK    6  A    between atoms: _15  and  _17
REMARK    7  A    between atoms: _17  and  _18
REMARK    8  A    between atoms: _17  and  _20
REMARK    9  A    between atoms: _20  and  _21
REMARK   10  A    between atoms: _24  and  _26
REMARK   11  A    between atoms: _26  and  _27
REMARK   12  A    between atoms: _30  and  _32
REMARK   13  A    between atoms: _32  and  _33
REMARK   14  A    between atoms: _32  and  _35
REMARK   15  A    between atoms: _35  and  _36
REMARK   16  A    between atoms: _39  and  _41
REMARK   17  A    between atoms: _41  and  _42
REMARK   18  A    between atoms: _44  and  _46
REMARK   19  A    between atoms: _46  and  _47
REMARK   20  A    between atoms: _46  and  _49
REMARK   21  A    between atoms: _49  and  _50
REMARK   22  A    between atoms: _52  and  _54
REMARK   23  A    between atoms: _54  and  _55
REMARK   24  A    between atoms: _54  and  _57
REMARK   25  A    between atoms: _57  and  _58
REMARK   26  A    between atoms: _63  and  _65
REMARK   27  A    between atoms: _65  and  _66
REMARK   28  A    between atoms: _65  and  _68
REMARK   29  A    between atoms: _68  and  _69
REMARK   30  A    between atoms: _74  and  _75
REMARK   31  A    between atoms: _77  and  _79
REMARK   32  A    between atoms: _79  and  _80
REMARK   33  A    between atoms: _79  and  _82
REMARK   34  A    between atoms: _82  and  _83
REMARK   35  A    between atoms: _83  and  _84
REMARK   36  A    between atoms: _84  and  _85
REMARK   37  A    between atoms: _94  and  _96
REMARK   38  A    between atoms: _96  and  _97
REMARK   39  A    between atoms: _96  and  _99
REMARK   40  A    between atoms: _99  and  _100
REMARK   41  A    between atoms: _104  and  _105
REMARK   42  A    between atoms: _111  and  _112
REMARK   43  A    between atoms: _117  and  _119
REMARK   44  A    between atoms: _119  and  _120
REMARK   45  A    between atoms: _119  and  _122
REMARK   46  A    between atoms: _122  and  _123
REMARK   47  A    between atoms: _126  and  _128
REMARK   48  A    between atoms: _128  and  _129
REMARK   49  A    between atoms: _132  and  _133
REMARK   50  A    between atoms: _138  and  _140
REMARK   51  A    between atoms: _140  and  _141
REMARK   52  A    between atoms: _140  and  _143
REMARK   53  A    between atoms: _143  and  _144
REMARK   54  A    between atoms: _144  and  _145
REMARK   55  A    between atoms: _150  and  _152
REMARK   56  A    between atoms: _152  and  _153
REMARK   57  A    between atoms: _152  and  _155
REMARK   58  A    between atoms: _155  and  _156
REMARK   59  A    between atoms: _156  and  _157
REMARK   60  A    between atoms: _163  and  _164
REMARK   61  A    between atoms: _169  and  _171
REMARK   62  A    between atoms: _171  and  _172
REMARK   63  A    between atoms: _171  and  _174
REMARK   64  A    between atoms: _174  and  _175
REMARK   65  A    between atoms: _178  and  _180
REMARK   66  A    between atoms: _180  and  _181
REMARK   67  A    between atoms: _180  and  _183
REMARK   68  A    between atoms: _183  and  _184
REMARK   69  A    between atoms: _189  and  _190
REMARK   70  A    between atoms: _192  and  _194
REMARK   71  A    between atoms: _194  and  _195
REMARK   72  A    between atoms: _194  and  _197
REMARK   73  A    between atoms: _197  and  _198
REMARK   74  A    between atoms: _201  and  _203
REMARK   75  A    between atoms: _203  and  _204
REMARK   76  A    between atoms: _203  and  _206
REMARK   77  A    between atoms: _206  and  _207
REMARK   78  A    between atoms: _212  and  _214
REMARK   79  A    between atoms: _214  and  _215
REMARK   80  A    between atoms: _218  and  _220
REMARK   81  A    between atoms: _220  and  _221
REMARK   82  A    between atoms: _220  and  _223
REMARK   83  A    between atoms: _223  and  _224
REMARK   84  A    between atoms: _227  and  _229
REMARK   85  A    between atoms: _229  and  _230
REMARK   86  A    between atoms: _229  and  _232
REMARK   87  A    between atoms: _232  and  _233
REMARK   88  A    between atoms: _236  and  _238
REMARK   89  A    between atoms: _238  and  _239
REMARK   90  A    between atoms: _238  and  _241
REMARK   91  A    between atoms: _241  and  _242
REMARK   92  A    between atoms: _245  and  _247
REMARK   93  A    between atoms: _247  and  _248
REMARK   94  A    between atoms: _247  and  _250
REMARK   95  A    between atoms: _250  and  _251
REMARK   96  A    between atoms: _251  and  _252
REMARK   97  A    between atoms: _257  and  _259
REMARK   98  A    between atoms: _259  and  _260
REMARK   99  A    between atoms: _259  and  _262
REMARK  100  A    between atoms: _262  and  _263
REMARK  101  A    between atoms: _263  and  _264
REMARK  102  A    between atoms: _264  and  _265
REMARK  103  A    between atoms: _274  and  _276
REMARK  104  A    between atoms: _276  and  _277
REMARK  105  A    between atoms: _276  and  _279
REMARK  106  A    between atoms: _279  and  _280
REMARK  107  A    between atoms: _280  and  _281
REMARK  108  A    between atoms: _284  and  _286
REMARK  109  A    between atoms: _286  and  _287
REMARK  110  A    between atoms: _286  and  _289
REMARK  111  A    between atoms: _289  and  _290
REMARK  112  A    between atoms: _293  and  _295
REMARK  113  A    between atoms: _295  and  _296
REMARK  114  A    between atoms: _295  and  _298
REMARK  115  A    between atoms: _298  and  _299
REMARK  116  A    between atoms: _299  and  _300
REMARK  117  A    between atoms: _300  and  _301
REMARK  118  A    between atoms: _310  and  _312
REMARK  119  A    between atoms: _312  and  _313
REMARK  120  A    between atoms: _312  and  _315
REMARK  121  A    between atoms: _315  and  _316
REMARK  122  A    between atoms: _316  and  _317
REMARK  123  A    between atoms: _317  and  _318
REMARK  124  A    between atoms: _318  and  _319
REMARK  125  A    between atoms: _323  and  _325
REMARK  126  A    between atoms: _325  and  _326
REMARK  127  A    between atoms: _329  and  _331
REMARK  128  A    between atoms: _331  and  _332
REMARK  129  A    between atoms: _331  and  _334
REMARK  130  A    between atoms: _334  and  _335
REMARK  131  A    between atoms: _335  and  _336
REMARK  132  A    between atoms: _339  and  _341
REMARK  133  A    between atoms: _341  and  _342
REMARK  134  A    between atoms: _341  and  _344
REMARK  135  A    between atoms: _344  and  _345
REMARK  136  A    between atoms: _345  and  _346
REMARK  137  A    between atoms: _346  and  _347
REMARK  138  A    between atoms: _356  and  _358
REMARK  139  A    between atoms: _358  and  _359
REMARK  140  A    between atoms: _358  and  _361
REMARK  141  A    between atoms: _361  and  _362
REMARK  142  A    between atoms: _372  and  _374
REMARK  143  A    between atoms: _374  and  _375
REMARK  144  A    between atoms: _378  and  _379
REMARK  145  A    between atoms: _384  and  _386
REMARK  146  A    between atoms: _386  and  _387
REMARK  147  A    between atoms: _386  and  _389
REMARK  148  A    between atoms: _389  and  _390
REMARK  149  A    between atoms: _390  and  _391
REMARK  150  A    between atoms: _391  and  _392
REMARK  151  A    between atoms: _401  and  _403
REMARK  152  A    between atoms: _403  and  _404
REMARK  153  A    between atoms: _403  and  _406
REMARK  154  A    between atoms: _406  and  _407
REMARK  155  A    between atoms: _410  and  _412
REMARK  156  A    between atoms: _412  and  _413
REMARK  157  A    between atoms: _412  and  _415
REMARK  158  A    between atoms: _415  and  _416
REMARK  159  A    between atoms: _419  and  _421
REMARK  160  A    between atoms: _421  and  _422
REMARK  161  A    between atoms: _421  and  _424
REMARK  162  A    between atoms: _424  and  _425
REMARK  163  A    between atoms: _428  and  _430
REMARK  164  A    between atoms: _430  and  _431
REMARK  165  A    between atoms: _430  and  _433
REMARK  166  A    between atoms: _433  and  _434
REMARK  167  A    between atoms: _437  and  _439
REMARK  168  A    between atoms: _439  and  _440
REMARK  169  A    between atoms: _439  and  _442
REMARK  170  A    between atoms: _442  and  _443
REMARK  171  A    between atoms: _446  and  _448
REMARK  172  A    between atoms: _448  and  _449
REMARK  173  A    between atoms: _448  and  _451
REMARK  174  A    between atoms: _451  and  _452
REMARK  175  A    between atoms: _452  and  _453
REMARK  176  A    between atoms: _455  and  _457
REMARK  177  A    between atoms: _457  and  _458
REMARK  178  A    between atoms: _457  and  _460
REMARK  179  A    between atoms: _460  and  _461
REMARK  180  A    between atoms: _464  and  _466
REMARK  181  A    between atoms: _466  and  _467
REMARK  182  A    between atoms: _466  and  _469
REMARK  183  A    between atoms: _469  and  _470
REMARK  184  A    between atoms: _476  and  _478
REMARK  185  A    between atoms: _478  and  _479
REMARK  186  A    between atoms: _478  and  _481
REMARK  187  A    between atoms: _481  and  _482
REMARK  188  A    between atoms: _485  and  _487
REMARK  189  A    between atoms: _487  and  _488
REMARK  190  A    between atoms: _487  and  _490
REMARK  191  A    between atoms: _490  and  _491
REMARK  192  A    between atoms: _494  and  _496
REMARK  193  A    between atoms: _496  and  _497
REMARK  194  A    between atoms: _496  and  _499
REMARK  195  A    between atoms: _499  and  _500
REMARK  196  A    between atoms: _500  and  _501
REMARK  197  A    between atoms: _504  and  _506
REMARK  198  A    between atoms: _506  and  _507
REMARK  199  A    between atoms: _506  and  _509
REMARK  200  A    between atoms: _509  and  _510
REMARK  201  A    between atoms: _510  and  _511
REMARK  202  A    between atoms: _511  and  _512
REMARK  203  A    between atoms: _521  and  _523
REMARK  204  A    between atoms: _523  and  _524
REMARK  205  A    between atoms: _523  and  _526
REMARK  206  A    between atoms: _526  and  _527
REMARK  207  A    between atoms: _530  and  _532
REMARK  208  A    between atoms: _532  and  _533
REMARK  209  A    between atoms: _532  and  _535
REMARK  210  A    between atoms: _535  and  _536
REMARK  211  A    between atoms: _539  and  _541
REMARK  212  A    between atoms: _541  and  _542
REMARK  213  A    between atoms: _541  and  _544
REMARK  214  A    between atoms: _548  and  _549
REMARK  215  A    between atoms: _554  and  _556
REMARK  216  A    between atoms: _556  and  _557
REMARK  217  A    between atoms: _556  and  _559
REMARK  218  A    between atoms: _559  and  _560
REMARK  219  A    between atoms: _565  and  _567
REMARK  220  A    between atoms: _567  and  _568
REMARK  221  A    between atoms: _567  and  _570
REMARK  222  A    between atoms: _570  and  _571
REMARK  223  A    between atoms: _576  and  _577
REMARK  224  A    between atoms: _579  and  _581
REMARK  225  A    between atoms: _581  and  _582
REMARK  226  A    between atoms: _581  and  _584
REMARK  227  A    between atoms: _584  and  _585
REMARK  228  A    between atoms: _588  and  _590
REMARK  229  A    between atoms: _590  and  _591
REMARK  230  A    between atoms: _590  and  _593
REMARK  231  A    between atoms: _593  and  _594
REMARK  232  A    between atoms: _594  and  _595
REMARK  233  A    between atoms: _595  and  _596
REMARK  234  A    between atoms: _605  and  _607
REMARK  235  A    between atoms: _607  and  _608
REMARK  236  A    between atoms: _610  and  _612
REMARK  237  A    between atoms: _612  and  _613
REMARK  238  A    between atoms: _612  and  _615
REMARK  239  A    between atoms: _615  and  _616
REMARK  240  A    between atoms: _622  and  _624
REMARK  241  A    between atoms: _624  and  _625
REMARK  242  A    between atoms: _624  and  _627
REMARK  243  A    between atoms: _627  and  _628
REMARK  244  A    between atoms: _628  and  _629
REMARK  245  A    between atoms: _631  and  _633
REMARK  246  A    between atoms: _633  and  _634
REMARK  247  A    between atoms: _633  and  _636
REMARK  248  A    between atoms: _636  and  _637
REMARK                            x       y       z     vdW  Elec       q    Type
REMARK                         _______ _______ _______ _____ _____    ______ ____
ROOT
ATOM      1  O   HOH     1       2.126  13.511  16.714  0.00  0.00    +0.000 OA
ENDROOT
TORSDOF 0
REMARK  Name = ../refined-set-2016/4f7v/4f7v_pocket.pdb
REMARK  248 active torsions:
REMARK  status: ('A' for Active; 'I' for Inactive)
REMARK    1  A    between atoms: _1  and  _3
REMARK    2  A    between atoms: _3  and  _4
REMARK    3  A    between atoms: _3  and  _6
REMARK    4  A    between atoms: _6  and  _7
REMARK    5  A    between atoms: _12  and  _13
REMARK    6  A    between atoms: _15  and  _17
REMARK    7  A    between atoms: _17  and  _18
REMARK    8  A    between atoms: _17  and  _20
REMARK    9  A    between atoms: _20  and  _21
REMARK   10  A    between atoms: _24  and  _26
REMARK   11  A    between atoms: _26  and  _27
REMARK   12  A    between atoms: _30  and  _32
REMARK   13  A    between atoms: _32  and  _33
REMARK   14  A    between atoms: _32  and  _35
REMARK   15  A    between atoms: _35  and  _36
REMARK   16  A    between atoms: _39  and  _41
REMARK   17  A    between atoms: _41  and  _42
REMARK   18  A    between atoms: _44  and  _46
REMARK   19  A    between atoms: _46  and  _47
REMARK   20  A    between atoms: _46  and  _49
REMARK   21  A    between atoms: _49  and  _50
REMARK   22  A    between atoms: _52  and  _54
REMARK   23  A    between atoms: _54  and  _55
REMARK   24  A    between atoms: _54  and  _57
REMARK   25  A    between atoms: _57  and  _58
REMARK   26  A    between atoms: _63  and  _65
REMARK   27  A    between atoms: _65  and  _66
REMARK   28  A    between atoms: _65  and  _68
REMARK   29  A    between atoms: _68  and  _69
REMARK   30  A    between atoms: _74  and  _75
REMARK   31  A    between atoms: _77  and  _79
REMARK   32  A    between atoms: _79  and  _80
REMARK   33  A    between atoms: _79  and  _82
REMARK   34  A    between atoms: _82  and  _83
REMARK   35  A    between atoms: _83  and  _84
REMARK   36  A    between atoms: _84  and  _85
REMARK   37  A    between atoms: _94  and  _96
REMARK   38  A    between atoms: _96  and  _97
REMARK   39  A    between atoms: _96  and  _99
REMARK   40  A    between atoms: _99  and  _100
REMARK   41  A    between atoms: _104  and  _105
REMARK   42  A    between atoms: _111  and  _112
REMARK   43  A    between atoms: _117  and  _119
REMARK   44  A    between atoms: _119  and  _120
REMARK   45  A    between atoms: _119  and  _122
REMARK   46  A    between atoms: _122  and  _123
REMARK   47  A    between atoms: _126  and  _128
REMARK   48  A    between atoms: _128  and  _129
REMARK   49  A    between atoms: _132  and  _133
REMARK   50  A    between atoms: _138  and  _140
REMARK   51  A    between atoms: _140  and  _141
REMARK   52  A    between atoms: _140  and  _143
REMARK   53  A    between atoms: _143  and  _144
REMARK   54  A    between atoms: _144  and  _145
REMARK   55  A    between atoms: _150  and  _152
REMARK   56  A    between atoms: _152  and  _153
REMARK   57  A    between atoms: _152  and  _155
REMARK   58  A    between atoms: _155  and  _156
REMARK   59  A    between atoms: _156  and  _157
REMARK   60  A    between atoms: _163  and  _164
REMARK   61  A    between atoms: _169  and  _171
REMARK   62  A    between atoms: _171  and  _172
REMARK   63  A    between atoms: _171  and  _174
REMARK   64  A    between atoms: _174  and  _175
REMARK   65  A    between atoms: _178  and  _180
REMARK   66  A    between atoms: _180  and  _181
REMARK   67  A    between atoms: _180  and  _183
REMARK   68  A    between atoms: _183  and  _184
REMARK   69  A    between atoms: _189  and  _190
REMARK   70  A    between atoms: _192  and  _194
REMARK   71  A    between atoms: _194  and  _195
REMARK   72  A    between atoms: _194  and  _197
REMARK   73  A    between atoms: _197  and  _198
REMARK   74  A    between atoms: _201  and  _203
REMARK   75  A    between atoms: _203  and  _204
REMARK   76  A    between atoms: _203  and  _206
REMARK   77  A    between atoms: _206  and  _207
REMARK   78  A    between atoms: _212  and  _214
REMARK   79  A    between atoms: _214  and  _215
REMARK   80  A    between atoms: _218  and  _220
REMARK   81  A    between atoms: _220  and  _221
REMARK   82  A    between atoms: _220  and  _223
REMARK   83  A    between atoms: _223  and  _224
REMARK   84  A    between atoms: _227  and  _229
REMARK   85  A    between atoms: _229  and  _230
REMARK   86  A    between atoms: _229  and  _232
REMARK   87  A    between atoms: _232  and  _233
REMARK   88  A    between atoms: _236  and  _238
REMARK   89  A    between atoms: _238  and  _239
REMARK   90  A    between atoms: _238  and  _241
REMARK   91  A    between atoms: _241  and  _242
REMARK   92  A    between atoms: _245  and  _247
REMARK   93  A    between atoms: _247  and  _248
REMARK   94  A    between atoms: _247  and  _250
REMARK   95  A    between atoms: _250  and  _251
REMARK   96  A    between atoms: _251  and  _252
REMARK   97  A    between atoms: _257  and  _259
REMARK   98  A    between atoms: _259  and  _260
REMARK   99  A    between atoms: _259  and  _262
REMARK  100  A    between atoms: _262  and  _263
REMARK  101  A    between atoms: _263  and  _264
REMARK  102  A    between atoms: _264  and  _265
REMARK  103  A    between atoms: _274  and  _276
REMARK  104  A    between atoms: _276  and  _277
REMARK  105  A    between atoms: _276  and  _279
REMARK  106  A    between atoms: _279  and  _280
REMARK  107  A    between atoms: _280  and  _281
REMARK  108  A    between atoms: _284  and  _286
REMARK  109  A    between atoms: _286  and  _287
REMARK  110  A    between atoms: _286  and  _289
REMARK  111  A    between atoms: _289  and  _290
REMARK  112  A    between atoms: _293  and  _295
REMARK  113  A    between atoms: _295  and  _296
REMARK  114  A    between atoms: _295  and  _298
REMARK  115  A    between atoms: _298  and  _299
REMARK  116  A    between atoms: _299  and  _300
REMARK  117  A    between atoms: _300  and  _301
REMARK  118  A    between atoms: _310  and  _312
REMARK  119  A    between atoms: _312  and  _313
REMARK  120  A    between atoms: _312  and  _315
REMARK  121  A    between atoms: _315  and  _316
REMARK  122  A    between atoms: _316  and  _317
REMARK  123  A    between atoms: _317  and  _318
REMARK  124  A    between atoms: _318  and  _319
REMARK  125  A    between atoms: _323  and  _325
REMARK  126  A    between atoms: _325  and  _326
REMARK  127  A    between atoms: _329  and  _331
REMARK  128  A    between atoms: _331  and  _332
REMARK  129  A    between atoms: _331  and  _334
REMARK  130  A    between atoms: _334  and  _335
REMARK  131  A    between atoms: _335  and  _336
REMARK  132  A    between atoms: _339  and  _341
REMARK  133  A    between atoms: _341  and  _342
REMARK  134  A    between atoms: _341  and  _344
REMARK  135  A    between atoms: _344  and  _345
REMARK  136  A    between atoms: _345  and  _346
REMARK  137  A    between atoms: _346  and  _347
REMARK  138  A    between atoms: _356  and  _358
REMARK  139  A    between atoms: _358  and  _359
REMARK  140  A    between atoms: _358  and  _361
REMARK  141  A    between atoms: _361  and  _362
REMARK  142  A    between atoms: _372  and  _374
REMARK  143  A    between atoms: _374  and  _375
REMARK  144  A    between atoms: _378  and  _379
REMARK  145  A    between atoms: _384  and  _386
REMARK  146  A    between atoms: _386  and  _387
REMARK  147  A    between atoms: _386  and  _389
REMARK  148  A    between atoms: _389  and  _390
REMARK  149  A    between atoms: _390  and  _391
REMARK  150  A    between atoms: _391  and  _392
REMARK  151  A    between atoms: _401  and  _403
REMARK  152  A    between atoms: _403  and  _404
REMARK  153  A    between atoms: _403  and  _406
REMARK  154  A    between atoms: _406  and  _407
REMARK  155  A    between atoms: _410  and  _412
REMARK  156  A    between atoms: _412  and  _413
REMARK  157  A    between atoms: _412  and  _415
REMARK  158  A    between atoms: _415  and  _416
REMARK  159  A    between atoms: _419  and  _421
REMARK  160  A    between atoms: _421  and  _422
REMARK  161  A    between atoms: _421  and  _424
REMARK  162  A    between atoms: _424  and  _425
REMARK  163  A    between atoms: _428  and  _430
REMARK  164  A    between atoms: _430  and  _431
REMARK  165  A    between atoms: _430  and  _433
REMARK  166  A    between atoms: _433  and  _434
REMARK  167  A    between atoms: _437  and  _439
REMARK  168  A    between atoms: _439  and  _440
REMARK  169  A    between atoms: _439  and  _442
REMARK  170  A    between atoms: _442  and  _443
REMARK  171  A    between atoms: _446  and  _448
REMARK  172  A    between atoms: _448  and  _449
REMARK  173  A    between atoms: _448  and  _451
REMARK  174  A    between atoms: _451  and  _452
REMARK  175  A    between atoms: _452  and  _453
REMARK  176  A    between atoms: _455  and  _457
REMARK  177  A    between atoms: _457  and  _458
REMARK  178  A    between atoms: _457  and  _460
REMARK  179  A    between atoms: _460  and  _461
REMARK  180  A    between atoms: _464  and  _466
REMARK  181  A    between atoms: _466  and  _467
REMARK  182  A    between atoms: _466  and  _469
REMARK  183  A    between atoms: _469  and  _470
REMARK  184  A    between atoms: _476  and  _478
REMARK  185  A    between atoms: _478  and  _479
REMARK  186  A    between atoms: _478  and  _481
REMARK  187  A    between atoms: _481  and  _482
REMARK  188  A    between atoms: _485  and  _487
REMARK  189  A    between atoms: _487  and  _488
REMARK  190  A    between atoms: _487  and  _490
REMARK  191  A    between atoms: _490  and  _491
REMARK  192  A    between atoms: _494  and  _496
REMARK  193  A    between atoms: _496  and  _497
REMARK  194  A    between atoms: _496  and  _499
REMARK  195  A    between atoms: _499  and  _500
REMARK  196  A    between atoms: _500  and  _501
REMARK  197  A    between atoms: _504  and  _506
REMARK  198  A    between atoms: _506  and  _507
REMARK  199  A    between atoms: _506  and  _509
REMARK  200  A    between atoms: _509  and  _510
REMARK  201  A    between atoms: _510  and  _511
REMARK  202  A    between atoms: _511  and  _512
REMARK  203  A    between atoms: _521  and  _523
REMARK  204  A    between atoms: _523  and  _524
REMARK  205  A    between atoms: _523  and  _526
REMARK  206  A    between atoms: _526  and  _527
REMARK  207  A    between atoms: _530  and  _532
REMARK  208  A    between atoms: _532  and  _533
REMARK  209  A    between atoms: _532  and  _535
REMARK  210  A    between atoms: _535  and  _536
REMARK  211  A    between atoms: _539  and  _541
REMARK  212  A    between atoms: _541  and  _542
REMARK  213  A    between atoms: _541  and  _544
REMARK  214  A    between atoms: _548  and  _549
REMARK  215  A    between atoms: _554  and  _556
REMARK  216  A    between atoms: _556  and  _557
REMARK  217  A    between atoms: _556  and  _559
REMARK  218  A    between atoms: _559  and  _560
REMARK  219  A    between atoms: _565  and  _567
REMARK  220  A    between atoms: _567  and  _568
REMARK  221  A    between atoms: _567  and  _570
REMARK  222  A    between atoms: _570  and  _571
REMARK  223  A    between atoms: _576  and  _577
REMARK  224  A    between atoms: _579  and  _581
REMARK  225  A    between atoms: _581  and  _582
REMARK  226  A    between atoms: _581  and  _584
REMARK  227  A    between atoms: _584  and  _585
REMARK  228  A    between atoms: _588  and  _590
REMARK  229  A    between atoms: _590  and  _591
REMARK  230  A    between atoms: _590  and  _593
REMARK  231  A    between atoms: _593  and  _594
REMARK  232  A    between atoms: _594  and  _595
REMARK  233  A    between atoms: _595  and  _596
REMARK  234  A    between atoms: _605  and  _607
REMARK  235  A    between atoms: _607  and  _608
REMARK  236  A    between atoms: _610  and  _612
REMARK  237  A    between atoms: _612  and  _613
REMARK  238  A    between atoms: _612  and  _615
REMARK  239  A    between atoms: _615  and  _616
REMARK  240  A    between atoms: _622  and  _624
REMARK  241  A    between atoms: _624  and  _625
REMARK  242  A    between atoms: _624  and  _627
REMARK  243  A    between atoms: _627  and  _628
REMARK  244  A    between atoms: _628  and  _629
REMARK  245  A    between atoms: _631  and  _633
REMARK  246  A    between atoms: _633  and  _634
REMARK  247  A    between atoms: _633  and  _636
REMARK  248  A    between atoms: _636  and  _637
REMARK                            x       y       z     vdW  Elec       q    Type
REMARK                         _______ _______ _______ _____ _____    ______ ____
ROOT
ATOM      1  O   HOH     1      -0.303  15.838  11.556  0.00  0.00    +0.000 OA
ENDROOT
TORSDOF 0
REMARK  Name = ../refined-set-2016/4f7v/4f7v_pocket.pdb
REMARK  248 active torsions:
REMARK  status: ('A' for Active; 'I' for Inactive)
REMARK    1  A    between atoms: _1  and  _3
REMARK    2  A    between atoms: _3  and  _4
REMARK    3  A    between atoms: _3  and  _6
REMARK    4  A    between atoms: _6  and  _7
REMARK    5  A    between atoms: _12  and  _13
REMARK    6  A    between atoms: _15  and  _17
REMARK    7  A    between atoms: _17  and  _18
REMARK    8  A    between atoms: _17  and  _20
REMARK    9  A    between atoms: _20  and  _21
REMARK   10  A    between atoms: _24  and  _26
REMARK   11  A    between atoms: _26  and  _27
REMARK   12  A    between atoms: _30  and  _32
REMARK   13  A    between atoms: _32  and  _33
REMARK   14  A    between atoms: _32  and  _35
REMARK   15  A    between atoms: _35  and  _36
REMARK   16  A    between atoms: _39  and  _41
REMARK   17  A    between atoms: _41  and  _42
REMARK   18  A    between atoms: _44  and  _46
REMARK   19  A    between atoms: _46  and  _47
REMARK   20  A    between atoms: _46  and  _49
REMARK   21  A    between atoms: _49  and  _50
REMARK   22  A    between atoms: _52  and  _54
REMARK   23  A    between atoms: _54  and  _55
REMARK   24  A    between atoms: _54  and  _57
REMARK   25  A    between atoms: _57  and  _58
REMARK   26  A    between atoms: _63  and  _65
REMARK   27  A    between atoms: _65  and  _66
REMARK   28  A    between atoms: _65  and  _68
REMARK   29  A    between atoms: _68  and  _69
REMARK   30  A    between atoms: _74  and  _75
REMARK   31  A    between atoms: _77  and  _79
REMARK   32  A    between atoms: _79  and  _80
REMARK   33  A    between atoms: _79  and  _82
REMARK   34  A    between atoms: _82  and  _83
REMARK   35  A    between atoms: _83  and  _84
REMARK   36  A    between atoms: _84  and  _85
REMARK   37  A    between atoms: _94  and  _96
REMARK   38  A    between atoms: _96  and  _97
REMARK   39  A    between atoms: _96  and  _99
REMARK   40  A    between atoms: _99  and  _100
REMARK   41  A    between atoms: _104  and  _105
REMARK   42  A    between atoms: _111  and  _112
REMARK   43  A    between atoms: _117  and  _119
REMARK   44  A    between atoms: _119  and  _120
REMARK   45  A    between atoms: _119  and  _122
REMARK   46  A    between atoms: _122  and  _123
REMARK   47  A    between atoms: _126  and  _128
REMARK   48  A    between atoms: _128  and  _129
REMARK   49  A    between atoms: _132  and  _133
REMARK   50  A    between atoms: _138  and  _140
REMARK   51  A    between atoms: _140  and  _141
REMARK   52  A    between atoms: _140  and  _143
REMARK   53  A    between atoms: _143  and  _144
REMARK   54  A    between atoms: _144  and  _145
REMARK   55  A    between atoms: _150  and  _152
REMARK   56  A    between atoms: _152  and  _153
REMARK   57  A    between atoms: _152  and  _155
REMARK   58  A    between atoms: _155  and  _156
REMARK   59  A    between atoms: _156  and  _157
REMARK   60  A    between atoms: _163  and  _164
REMARK   61  A    between atoms: _169  and  _171
REMARK   62  A    between atoms: _171  and  _172
REMARK   63  A    between atoms: _171  and  _174
REMARK   64  A    between atoms: _174  and  _175
REMARK   65  A    between atoms: _178  and  _180
REMARK   66  A    between atoms: _180  and  _181
REMARK   67  A    between atoms: _180  and  _183
REMARK   68  A    between atoms: _183  and  _184
REMARK   69  A    between atoms: _189  and  _190
REMARK   70  A    between atoms: _192  and  _194
REMARK   71  A    between atoms: _194  and  _195
REMARK   72  A    between atoms: _194  and  _197
REMARK   73  A    between atoms: _197  and  _198
REMARK   74  A    between atoms: _201  and  _203
REMARK   75  A    between atoms: _203  and  _204
REMARK   76  A    between atoms: _203  and  _206
REMARK   77  A    between atoms: _206  and  _207
REMARK   78  A    between atoms: _212  and  _214
REMARK   79  A    between atoms: _214  and  _215
REMARK   80  A    between atoms: _218  and  _220
REMARK   81  A    between atoms: _220  and  _221
REMARK   82  A    between atoms: _220  and  _223
REMARK   83  A    between atoms: _223  and  _224
REMARK   84  A    between atoms: _227  and  _229
REMARK   85  A    between atoms: _229  and  _230
REMARK   86  A    between atoms: _229  and  _232
REMARK   87  A    between atoms: _232  and  _233
REMARK   88  A    between atoms: _236  and  _238
REMARK   89  A    between atoms: _238  and  _239
REMARK   90  A    between atoms: _238  and  _241
REMARK   91  A    between atoms: _241  and  _242
REMARK   92  A    between atoms: _245  and  _247
REMARK   93  A    between atoms: _247  and  _248
REMARK   94  A    between atoms: _247  and  _250
REMARK   95  A    between atoms: _250  and  _251
REMARK   96  A    between atoms: _251  and  _252
REMARK   97  A    between atoms: _257  and  _259
REMARK   98  A    between atoms: _259  and  _260
REMARK   99  A    between atoms: _259  and  _262
REMARK  100  A    between atoms: _262  and  _263
REMARK  101  A    between atoms: _263  and  _264
REMARK  102  A    between atoms: _264  and  _265
REMARK  103  A    between atoms: _274  and  _276
REMARK  104  A    between atoms: _276  and  _277
REMARK  105  A    between atoms: _276  and  _279
REMARK  106  A    between atoms: _279  and  _280
REMARK  107  A    between atoms: _280  and  _281
REMARK  108  A    between atoms: _284  and  _286
REMARK  109  A    between atoms: _286  and  _287
REMARK  110  A    between atoms: _286  and  _289
REMARK  111  A    between atoms: _289  and  _290
REMARK  112  A    between atoms: _293  and  _295
REMARK  113  A    between atoms: _295  and  _296
REMARK  114  A    between atoms: _295  and  _298
REMARK  115  A    between atoms: _298  and  _299
REMARK  116  A    between atoms: _299  and  _300
REMARK  117  A    between atoms: _300  and  _301
REMARK  118  A    between atoms: _310  and  _312
REMARK  119  A    between atoms: _312  and  _313
REMARK  120  A    between atoms: _312  and  _315
REMARK  121  A    between atoms: _315  and  _316
REMARK  122  A    between atoms: _316  and  _317
REMARK  123  A    between atoms: _317  and  _318
REMARK  124  A    between atoms: _318  and  _319
REMARK  125  A    between atoms: _323  and  _325
REMARK  126  A    between atoms: _325  and  _326
REMARK  127  A    between atoms: _329  and  _331
REMARK  128  A    between atoms: _331  and  _332
REMARK  129  A    between atoms: _331  and  _334
REMARK  130  A    between atoms: _334  and  _335
REMARK  131  A    between atoms: _335  and  _336
REMARK  132  A    between atoms: _339  and  _341
REMARK  133  A    between atoms: _341  and  _342
REMARK  134  A    between atoms: _341  and  _344
REMARK  135  A    between atoms: _344  and  _345
REMARK  136  A    between atoms: _345  and  _346
REMARK  137  A    between atoms: _346  and  _347
REMARK  138  A    between atoms: _356  and  _358
REMARK  139  A    between atoms: _358  and  _359
REMARK  140  A    between atoms: _358  and  _361
REMARK  141  A    between atoms: _361  and  _362
REMARK  142  A    between atoms: _372  and  _374
REMARK  143  A    between atoms: _374  and  _375
REMARK  144  A    between atoms: _378  and  _379
REMARK  145  A    between atoms: _384  and  _386
REMARK  146  A    between atoms: _386  and  _387
REMARK  147  A    between atoms: _386  and  _389
REMARK  148  A    between atoms: _389  and  _390
REMARK  149  A    between atoms: _390  and  _391
REMARK  150  A    between atoms: _391  and  _392
REMARK  151  A    between atoms: _401  and  _403
REMARK  152  A    between atoms: _403  and  _404
REMARK  153  A    between atoms: _403  and  _406
REMARK  154  A    between atoms: _406  and  _407
REMARK  155  A    between atoms: _410  and  _412
REMARK  156  A    between atoms: _412  and  _413
REMARK  157  A    between atoms: _412  and  _415
REMARK  158  A    between atoms: _415  and  _416
REMARK  159  A    between atoms: _419  and  _421
REMARK  160  A    between atoms: _421  and  _422
REMARK  161  A    between atoms: _421  and  _424
REMARK  162  A    between atoms: _424  and  _425
REMARK  163  A    between atoms: _428  and  _430
REMARK  164  A    between atoms: _430  and  _431
REMARK  165  A    between atoms: _430  and  _433
REMARK  166  A    between atoms: _433  and  _434
REMARK  167  A    between atoms: _437  and  _439
REMARK  168  A    between atoms: _439  and  _440
REMARK  169  A    between atoms: _439  and  _442
REMARK  170  A    between atoms: _442  and  _443
REMARK  171  A    between atoms: _446  and  _448
REMARK  172  A    between atoms: _448  and  _449
REMARK  173  A    between atoms: _448  and  _451
REMARK  174  A    between atoms: _451  and  _452
REMARK  175  A    between atoms: _452  and  _453
REMARK  176  A    between atoms: _455  and  _457
REMARK  177  A    between atoms: _457  and  _458
REMARK  178  A    between atoms: _457  and  _460
REMARK  179  A    between atoms: _460  and  _461
REMARK  180  A    between atoms: _464  and  _466
REMARK  181  A    between atoms: _466  and  _467
REMARK  182  A    between atoms: _466  and  _469
REMARK  183  A    between atoms: _469  and  _470
REMARK  184  A    between atoms: _476  and  _478
REMARK  185  A    between atoms: _478  and  _479
REMARK  186  A    between atoms: _478  and  _481
REMARK  187  A    between atoms: _481  and  _482
REMARK  188  A    between atoms: _485  and  _487
REMARK  189  A    between atoms: _487  and  _488
REMARK  190  A    between atoms: _487  and  _490
REMARK  191  A    between atoms: _490  and  _491
REMARK  192  A    between atoms: _494  and  _496
REMARK  193  A    between atoms: _496  and  _497
REMARK  194  A    between atoms: _496  and  _499
REMARK  195  A    between atoms: _499  and  _500
REMARK  196  A    between atoms: _500  and  _501
REMARK  197  A    between atoms: _504  and  _506
REMARK  198  A    between atoms: _506  and  _507
REMARK  199  A    between atoms: _506  and  _509
REMARK  200  A    between atoms: _509  and  _510
REMARK  201  A    between atoms: _510  and  _511
REMARK  202  A    between atoms: _511  and  _512
REMARK  203  A    between atoms: _521  and  _523
REMARK  204  A    between atoms: _523  and  _524
REMARK  205  A    between atoms: _523  and  _526
REMARK  206  A    between atoms: _526  and  _527
REMARK  207  A    between atoms: _530  and  _532
REMARK  208  A    between atoms: _532  and  _533
REMARK  209  A    between atoms: _532  and  _535
REMARK  210  A    between atoms: _535  and  _536
REMARK  211  A    between atoms: _539  and  _541
REMARK  212  A    between atoms: _541  and  _542
REMARK  213  A    between atoms: _541  and  _544
REMARK  214  A    between atoms: _548  and  _549
REMARK  215  A    between atoms: _554  and  _556
REMARK  216  A    between atoms: _556  and  _557
REMARK  217  A    between atoms: _556  and  _559
REMARK  218  A    between atoms: _559  and  _560
REMARK  219  A    between atoms: _565  and  _567
REMARK  220  A    between atoms: _567  and  _568
REMARK  221  A    between atoms: _567  and  _570
REMARK  222  A    between atoms: _570  and  _571
REMARK  223  A    between atoms: _576  and  _577
REMARK  224  A    between atoms: _579  and  _581
REMARK  225  A    between atoms: _581  and  _582
REMARK  226  A    between atoms: _581  and  _584
REMARK  227  A    between atoms: _584  and  _585
REMARK  228  A    between atoms: _588  and  _590
REMARK  229  A    between atoms: _590  and  _591
REMARK  230  A    between atoms: _590  and  _593
REMARK  231  A    between atoms: _593  and  _594
REMARK  232  A    between atoms: _594  and  _595
REMARK  233  A    between atoms: _595  and  _596
REMARK  234  A    between atoms: _605  and  _607
REMARK  235  A    between atoms: _607  and  _608
REMARK  236  A    between atoms: _610  and  _612
REMARK  237  A    between atoms: _612  and  _613
REMARK  238  A    between atoms: _612  and  _615
REMARK  239  A    between atoms: _615  and  _616
REMARK  240  A    between atoms: _622  and  _624
REMARK  241  A    between atoms: _624  and  _625
REMARK  242  A    between atoms: _624  and  _627
REMARK  243  A    between atoms: _627  and  _628
REMARK  244  A    between atoms: _628  and  _629
REMARK  245  A    between atoms: _631  and  _633
REMARK  246  A    between atoms: _633  and  _634
REMARK  247  A    between atoms: _633  and  _636
REMARK  248  A    between atoms: _636  and  _637
REMARK                            x       y       z     vdW  Elec       q    Type
REMARK                         _______ _______ _______ _____ _____    ______ ____
ROOT
ATOM      1  O   HOH     1       0.299  24.195   2.104  0.00  0.00    +0.000 OA
ENDROOT
TORSDOF 0
REMARK  Name = ../refined-set-2016/4f7v/4f7v_pocket.pdb
REMARK  248 active torsions:
REMARK  status: ('A' for Active; 'I' for Inactive)
REMARK    1  A    between atoms: _1  and  _3
REMARK    2  A    between atoms: _3  and  _4
REMARK    3  A    between atoms: _3  and  _6
REMARK    4  A    between atoms: _6  and  _7
REMARK    5  A    between atoms: _12  and  _13
REMARK    6  A    between atoms: _15  and  _17
REMARK    7  A    between atoms: _17  and  _18
REMARK    8  A    between atoms: _17  and  _20
REMARK    9  A    between atoms: _20  and  _21
REMARK   10  A    between atoms: _24  and  _26
REMARK   11  A    between atoms: _26  and  _27
REMARK   12  A    between atoms: _30  and  _32
REMARK   13  A    between atoms: _32  and  _33
REMARK   14  A    between atoms: _32  and  _35
REMARK   15  A    between atoms: _35  and  _36
REMARK   16  A    between atoms: _39  and  _41
REMARK   17  A    between atoms: _41  and  _42
REMARK   18  A    between atoms: _44  and  _46
REMARK   19  A    between atoms: _46  and  _47
REMARK   20  A    between atoms: _46  and  _49
REMARK   21  A    between atoms: _49  and  _50
REMARK   22  A    between atoms: _52  and  _54
REMARK   23  A    between atoms: _54  and  _55
REMARK   24  A    between atoms: _54  and  _57
REMARK   25  A    between atoms: _57  and  _58
REMARK   26  A    between atoms: _63  and  _65
REMARK   27  A    between atoms: _65  and  _66
REMARK   28  A    between atoms: _65  and  _68
REMARK   29  A    between atoms: _68  and  _69
REMARK   30  A    between atoms: _74  and  _75
REMARK   31  A    between atoms: _77  and  _79
REMARK   32  A    between atoms: _79  and  _80
REMARK   33  A    between atoms: _79  and  _82
REMARK   34  A    between atoms: _82  and  _83
REMARK   35  A    between atoms: _83  and  _84
REMARK   36  A    between atoms: _84  and  _85
REMARK   37  A    between atoms: _94  and  _96
REMARK   38  A    between atoms: _96  and  _97
REMARK   39  A    between atoms: _96  and  _99
REMARK   40  A    between atoms: _99  and  _100
REMARK   41  A    between atoms: _104  and  _105
REMARK   42  A    between atoms: _111  and  _112
REMARK   43  A    between atoms: _117  and  _119
REMARK   44  A    between atoms: _119  and  _120
REMARK   45  A    between atoms: _119  and  _122
REMARK   46  A    between atoms: _122  and  _123
REMARK   47  A    between atoms: _126  and  _128
REMARK   48  A    between atoms: _128  and  _129
REMARK   49  A    between atoms: _132  and  _133
REMARK   50  A    between atoms: _138  and  _140
REMARK   51  A    between atoms: _140  and  _141
REMARK   52  A    between atoms: _140  and  _143
REMARK   53  A    between atoms: _143  and  _144
REMARK   54  A    between atoms: _144  and  _145
REMARK   55  A    between atoms: _150  and  _152
REMARK   56  A    between atoms: _152  and  _153
REMARK   57  A    between atoms: _152  and  _155
REMARK   58  A    between atoms: _155  and  _156
REMARK   59  A    between atoms: _156  and  _157
REMARK   60  A    between atoms: _163  and  _164
REMARK   61  A    between atoms: _169  and  _171
REMARK   62  A    between atoms: _171  and  _172
REMARK   63  A    between atoms: _171  and  _174
REMARK   64  A    between atoms: _174  and  _175
REMARK   65  A    between atoms: _178  and  _180
REMARK   66  A    between atoms: _180  and  _181
REMARK   67  A    between atoms: _180  and  _183
REMARK   68  A    between atoms: _183  and  _184
REMARK   69  A    between atoms: _189  and  _190
REMARK   70  A    between atoms: _192  and  _194
REMARK   71  A    between atoms: _194  and  _195
REMARK   72  A    between atoms: _194  and  _197
REMARK   73  A    between atoms: _197  and  _198
REMARK   74  A    between atoms: _201  and  _203
REMARK   75  A    between atoms: _203  and  _204
REMARK   76  A    between atoms: _203  and  _206
REMARK   77  A    between atoms: _206  and  _207
REMARK   78  A    between atoms: _212  and  _214
REMARK   79  A    between atoms: _214  and  _215
REMARK   80  A    between atoms: _218  and  _220
REMARK   81  A    between atoms: _220  and  _221
REMARK   82  A    between atoms: _220  and  _223
REMARK   83  A    between atoms: _223  and  _224
REMARK   84  A    between atoms: _227  and  _229
REMARK   85  A    between atoms: _229  and  _230
REMARK   86  A    between atoms: _229  and  _232
REMARK   87  A    between atoms: _232  and  _233
REMARK   88  A    between atoms: _236  and  _238
REMARK   89  A    between atoms: _238  and  _239
REMARK   90  A    between atoms: _238  and  _241
REMARK   91  A    between atoms: _241  and  _242
REMARK   92  A    between atoms: _245  and  _247
REMARK   93  A    between atoms: _247  and  _248
REMARK   94  A    between atoms: _247  and  _250
REMARK   95  A    between atoms: _250  and  _251
REMARK   96  A    between atoms: _251  and  _252
REMARK   97  A    between atoms: _257  and  _259
REMARK   98  A    between atoms: _259  and  _260
REMARK   99  A    between atoms: _259  and  _262
REMARK  100  A    between atoms: _262  and  _263
REMARK  101  A    between atoms: _263  and  _264
REMARK  102  A    between atoms: _264  and  _265
REMARK  103  A    between atoms: _274  and  _276
REMARK  104  A    between atoms: _276  and  _277
REMARK  105  A    between atoms: _276  and  _279
REMARK  106  A    between atoms: _279  and  _280
REMARK  107  A    between atoms: _280  and  _281
REMARK  108  A    between atoms: _284  and  _286
REMARK  109  A    between atoms: _286  and  _287
REMARK  110  A    between atoms: _286  and  _289
REMARK  111  A    between atoms: _289  and  _290
REMARK  112  A    between atoms: _293  and  _295
REMARK  113  A    between atoms: _295  and  _296
REMARK  114  A    between atoms: _295  and  _298
REMARK  115  A    between atoms: _298  and  _299
REMARK  116  A    between atoms: _299  and  _300
REMARK  117  A    between atoms: _300  and  _301
REMARK  118  A    between atoms: _310  and  _312
REMARK  119  A    between atoms: _312  and  _313
REMARK  120  A    between atoms: _312  and  _315
REMARK  121  A    between atoms: _315  and  _316
REMARK  122  A    between atoms: _316  and  _317
REMARK  123  A    between atoms: _317  and  _318
REMARK  124  A    between atoms: _318  and  _319
REMARK  125  A    between atoms: _323  and  _325
REMARK  126  A    between atoms: _325  and  _326
REMARK  127  A    between atoms: _329  and  _331
REMARK  128  A    between atoms: _331  and  _332
REMARK  129  A    between atoms: _331  and  _334
REMARK  130  A    between atoms: _334  and  _335
REMARK  131  A    between atoms: _335  and  _336
REMARK  132  A    between atoms: _339  and  _341
REMARK  133  A    between atoms: _341  and  _342
REMARK  134  A    between atoms: _341  and  _344
REMARK  135  A    between atoms: _344  and  _345
REMARK  136  A    between atoms: _345  and  _346
REMARK  137  A    between atoms: _346  and  _347
REMARK  138  A    between atoms: _356  and  _358
REMARK  139  A    between atoms: _358  and  _359
REMARK  140  A    between atoms: _358  and  _361
REMARK  141  A    between atoms: _361  and  _362
REMARK  142  A    between atoms: _372  and  _374
REMARK  143  A    between atoms: _374  and  _375
REMARK  144  A    between atoms: _378  and  _379
REMARK  145  A    between atoms: _384  and  _386
REMARK  146  A    between atoms: _386  and  _387
REMARK  147  A    between atoms: _386  and  _389
REMARK  148  A    between atoms: _389  and  _390
REMARK  149  A    between atoms: _390  and  _391
REMARK  150  A    between atoms: _391  and  _392
REMARK  151  A    between atoms: _401  and  _403
REMARK  152  A    between atoms: _403  and  _404
REMARK  153  A    between atoms: _403  and  _406
REMARK  154  A    between atoms: _406  and  _407
REMARK  155  A    between atoms: _410  and  _412
REMARK  156  A    between atoms: _412  and  _413
REMARK  157  A    between atoms: _412  and  _415
REMARK  158  A    between atoms: _415  and  _416
REMARK  159  A    between atoms: _419  and  _421
REMARK  160  A    between atoms: _421  and  _422
REMARK  161  A    between atoms: _421  and  _424
REMARK  162  A    between atoms: _424  and  _425
REMARK  163  A    between atoms: _428  and  _430
REMARK  164  A    between atoms: _430  and  _431
REMARK  165  A    between atoms: _430  and  _433
REMARK  166  A    between atoms: _433  and  _434
REMARK  167  A    between atoms: _437  and  _439
REMARK  168  A    between atoms: _439  and  _440
REMARK  169  A    between atoms: _439  and  _442
REMARK  170  A    between atoms: _442  and  _443
REMARK  171  A    between atoms: _446  and  _448
REMARK  172  A    between atoms: _448  and  _449
REMARK  173  A    between atoms: _448  and  _451
REMARK  174  A    between atoms: _451  and  _452
REMARK  175  A    between atoms: _452  and  _453
REMARK  176  A    between atoms: _455  and  _457
REMARK  177  A    between atoms: _457  and  _458
REMARK  178  A    between atoms: _457  and  _460
REMARK  179  A    between atoms: _460  and  _461
REMARK  180  A    between atoms: _464  and  _466
REMARK  181  A    between atoms: _466  and  _467
REMARK  182  A    between atoms: _466  and  _469
REMARK  183  A    between atoms: _469  and  _470
REMARK  184  A    between atoms: _476  and  _478
REMARK  185  A    between atoms: _478  and  _479
REMARK  186  A    between atoms: _478  and  _481
REMARK  187  A    between atoms: _481  and  _482
REMARK  188  A    between atoms: _485  and  _487
REMARK  189  A    between atoms: _487  and  _488
REMARK  190  A    between atoms: _487  and  _490
REMARK  191  A    between atoms: _490  and  _491
REMARK  192  A    between atoms: _494  and  _496
REMARK  193  A    between atoms: _496  and  _497
REMARK  194  A    between atoms: _496  and  _499
REMARK  195  A    between atoms: _499  and  _500
REMARK  196  A    between atoms: _500  and  _501
REMARK  197  A    between atoms: _504  and  _506
REMARK  198  A    between atoms: _506  and  _507
REMARK  199  A    between atoms: _506  and  _509
REMARK  200  A    between atoms: _509  and  _510
REMARK  201  A    between atoms: _510  and  _511
REMARK  202  A    between atoms: _511  and  _512
REMARK  203  A    between atoms: _521  and  _523
REMARK  204  A    between atoms: _523  and  _524
REMARK  205  A    between atoms: _523  and  _526
REMARK  206  A    between atoms: _526  and  _527
REMARK  207  A    between atoms: _530  and  _532
REMARK  208  A    between atoms: _532  and  _533
REMARK  209  A    between atoms: _532  and  _535
REMARK  210  A    between atoms: _535  and  _536
REMARK  211  A    between atoms: _539  and  _541
REMARK  212  A    between atoms: _541  and  _542
REMARK  213  A    between atoms: _541  and  _544
REMARK  214  A    between atoms: _548  and  _549
REMARK  215  A    between atoms: _554  and  _556
REMARK  216  A    between atoms: _556  and  _557
REMARK  217  A    between atoms: _556  and  _559
REMARK  218  A    between atoms: _559  and  _560
REMARK  219  A    between atoms: _565  and  _567
REMARK  220  A    between atoms: _567  and  _568
REMARK  221  A    between atoms: _567  and  _570
REMARK  222  A    between atoms: _570  and  _571
REMARK  223  A    between atoms: _576  and  _577
REMARK  224  A    between atoms: _579  and  _581
REMARK  225  A    between atoms: _581  and  _582
REMARK  226  A    between atoms: _581  and  _584
REMARK  227  A    between atoms: _584  and  _585
REMARK  228  A    between atoms: _588  and  _590
REMARK  229  A    between atoms: _590  and  _591
REMARK  230  A    between atoms: _590  and  _593
REMARK  231  A    between atoms: _593  and  _594
REMARK  232  A    between atoms: _594  and  _595
REMARK  233  A    between atoms: _595  and  _596
REMARK  234  A    between atoms: _605  and  _607
REMARK  235  A    between atoms: _607  and  _608
REMARK  236  A    between atoms: _610  and  _612
REMARK  237  A    between atoms: _612  and  _613
REMARK  238  A    between atoms: _612  and  _615
REMARK  239  A    between atoms: _615  and  _616
REMARK  240  A    between atoms: _622  and  _624
REMARK  241  A    between atoms: _624  and  _625
REMARK  242  A    between atoms: _624  and  _627
REMARK  243  A    between atoms: _627  and  _628
REMARK  244  A    between atoms: _628  and  _629
REMARK  245  A    between atoms: _631  and  _633
REMARK  246  A    between atoms: _633  and  _634
REMARK  247  A    between atoms: _633  and  _636
REMARK  248  A    between atoms: _636  and  _637
REMARK                            x       y       z     vdW  Elec       q    Type
REMARK                         _______ _______ _______ _____ _____    ______ ____
ROOT
ATOM      1  O   HOH     1       1.976  25.093  11.795  0.00  0.00    +0.000 OA
ENDROOT
TORSDOF 0
REMARK  Name = ../refined-set-2016/4f7v/4f7v_pocket.pdb
REMARK  248 active torsions:
REMARK  status: ('A' for Active; 'I' for Inactive)
REMARK    1  A    between atoms: _1  and  _3
REMARK    2  A    between atoms: _3  and  _4
REMARK    3  A    between atoms: _3  and  _6
REMARK    4  A    between atoms: _6  and  _7
REMARK    5  A    between atoms: _12  and  _13
REMARK    6  A    between atoms: _15  and  _17
REMARK    7  A    between atoms: _17  and  _18
REMARK    8  A    between atoms: _17  and  _20
REMARK    9  A    between atoms: _20  and  _21
REMARK   10  A    between atoms: _24  and  _26
REMARK   11  A    between atoms: _26  and  _27
REMARK   12  A    between atoms: _30  and  _32
REMARK   13  A    between atoms: _32  and  _33
REMARK   14  A    between atoms: _32  and  _35
REMARK   15  A    between atoms: _35  and  _36
REMARK   16  A    between atoms: _39  and  _41
REMARK   17  A    between atoms: _41  and  _42
REMARK   18  A    between atoms: _44  and  _46
REMARK   19  A    between atoms: _46  and  _47
REMARK   20  A    between atoms: _46  and  _49
REMARK   21  A    between atoms: _49  and  _50
REMARK   22  A    between atoms: _52  and  _54
REMARK   23  A    between atoms: _54  and  _55
REMARK   24  A    between atoms: _54  and  _57
REMARK   25  A    between atoms: _57  and  _58
REMARK   26  A    between atoms: _63  and  _65
REMARK   27  A    between atoms: _65  and  _66
REMARK   28  A    between atoms: _65  and  _68
REMARK   29  A    between atoms: _68  and  _69
REMARK   30  A    between atoms: _74  and  _75
REMARK   31  A    between atoms: _77  and  _79
REMARK   32  A    between atoms: _79  and  _80
REMARK   33  A    between atoms: _79  and  _82
REMARK   34  A    between atoms: _82  and  _83
REMARK   35  A    between atoms: _83  and  _84
REMARK   36  A    between atoms: _84  and  _85
REMARK   37  A    between atoms: _94  and  _96
REMARK   38  A    between atoms: _96  and  _97
REMARK   39  A    between atoms: _96  and  _99
REMARK   40  A    between atoms: _99  and  _100
REMARK   41  A    between atoms: _104  and  _105
REMARK   42  A    between atoms: _111  and  _112
REMARK   43  A    between atoms: _117  and  _119
REMARK   44  A    between atoms: _119  and  _120
REMARK   45  A    between atoms: _119  and  _122
REMARK   46  A    between atoms: _122  and  _123
REMARK   47  A    between atoms: _126  and  _128
REMARK   48  A    between atoms: _128  and  _129
REMARK   49  A    between atoms: _132  and  _133
REMARK   50  A    between atoms: _138  and  _140
REMARK   51  A    between atoms: _140  and  _141
REMARK   52  A    between atoms: _140  and  _143
REMARK   53  A    between atoms: _143  and  _144
REMARK   54  A    between atoms: _144  and  _145
REMARK   55  A    between atoms: _150  and  _152
REMARK   56  A    between atoms: _152  and  _153
REMARK   57  A    between atoms: _152  and  _155
REMARK   58  A    between atoms: _155  and  _156
REMARK   59  A    between atoms: _156  and  _157
REMARK   60  A    between atoms: _163  and  _164
REMARK   61  A    between atoms: _169  and  _171
REMARK   62  A    between atoms: _171  and  _172
REMARK   63  A    between atoms: _171  and  _174
REMARK   64  A    between atoms: _174  and  _175
REMARK   65  A    between atoms: _178  and  _180
REMARK   66  A    between atoms: _180  and  _181
REMARK   67  A    between atoms: _180  and  _183
REMARK   68  A    between atoms: _183  and  _184
REMARK   69  A    between atoms: _189  and  _190
REMARK   70  A    between atoms: _192  and  _194
REMARK   71  A    between atoms: _194  and  _195
REMARK   72  A    between atoms: _194  and  _197
REMARK   73  A    between atoms: _197  and  _198
REMARK   74  A    between atoms: _201  and  _203
REMARK   75  A    between atoms: _203  and  _204
REMARK   76  A    between atoms: _203  and  _206
REMARK   77  A    between atoms: _206  and  _207
REMARK   78  A    between atoms: _212  and  _214
REMARK   79  A    between atoms: _214  and  _215
REMARK   80  A    between atoms: _218  and  _220
REMARK   81  A    between atoms: _220  and  _221
REMARK   82  A    between atoms: _220  and  _223
REMARK   83  A    between atoms: _223  and  _224
REMARK   84  A    between atoms: _227  and  _229
REMARK   85  A    between atoms: _229  and  _230
REMARK   86  A    between atoms: _229  and  _232
REMARK   87  A    between atoms: _232  and  _233
REMARK   88  A    between atoms: _236  and  _238
REMARK   89  A    between atoms: _238  and  _239
REMARK   90  A    between atoms: _238  and  _241
REMARK   91  A    between atoms: _241  and  _242
REMARK   92  A    between atoms: _245  and  _247
REMARK   93  A    between atoms: _247  and  _248
REMARK   94  A    between atoms: _247  and  _250
REMARK   95  A    between atoms: _250  and  _251
REMARK   96  A    between atoms: _251  and  _252
REMARK   97  A    between atoms: _257  and  _259
REMARK   98  A    between atoms: _259  and  _260
REMARK   99  A    between atoms: _259  and  _262
REMARK  100  A    between atoms: _262  and  _263
REMARK  101  A    between atoms: _263  and  _264
REMARK  102  A    between atoms: _264  and  _265
REMARK  103  A    between atoms: _274  and  _276
REMARK  104  A    between atoms: _276  and  _277
REMARK  105  A    between atoms: _276  and  _279
REMARK  106  A    between atoms: _279  and  _280
REMARK  107  A    between atoms: _280  and  _281
REMARK  108  A    between atoms: _284  and  _286
REMARK  109  A    between atoms: _286  and  _287
REMARK  110  A    between atoms: _286  and  _289
REMARK  111  A    between atoms: _289  and  _290
REMARK  112  A    between atoms: _293  and  _295
REMARK  113  A    between atoms: _295  and  _296
REMARK  114  A    between atoms: _295  and  _298
REMARK  115  A    between atoms: _298  and  _299
REMARK  116  A    between atoms: _299  and  _300
REMARK  117  A    between atoms: _300  and  _301
REMARK  118  A    between atoms: _310  and  _312
REMARK  119  A    between atoms: _312  and  _313
REMARK  120  A    between atoms: _312  and  _315
REMARK  121  A    between atoms: _315  and  _316
REMARK  122  A    between atoms: _316  and  _317
REMARK  123  A    between atoms: _317  and  _318
REMARK  124  A    between atoms: _318  and  _319
REMARK  125  A    between atoms: _323  and  _325
REMARK  126  A    between atoms: _325  and  _326
REMARK  127  A    between atoms: _329  and  _331
REMARK  128  A    between atoms: _331  and  _332
REMARK  129  A    between atoms: _331  and  _334
REMARK  130  A    between atoms: _334  and  _335
REMARK  131  A    between atoms: _335  and  _336
REMARK  132  A    between atoms: _339  and  _341
REMARK  133  A    between atoms: _341  and  _342
REMARK  134  A    between atoms: _341  and  _344
REMARK  135  A    between atoms: _344  and  _345
REMARK  136  A    between atoms: _345  and  _346
REMARK  137  A    between atoms: _346  and  _347
REMARK  138  A    between atoms: _356  and  _358
REMARK  139  A    between atoms: _358  and  _359
REMARK  140  A    between atoms: _358  and  _361
REMARK  141  A    between atoms: _361  and  _362
REMARK  142  A    between atoms: _372  and  _374
REMARK  143  A    between atoms: _374  and  _375
REMARK  144  A    between atoms: _378  and  _379
REMARK  145  A    between atoms: _384  and  _386
REMARK  146  A    between atoms: _386  and  _387
REMARK  147  A    between atoms: _386  and  _389
REMARK  148  A    between atoms: _389  and  _390
REMARK  149  A    between atoms: _390  and  _391
REMARK  150  A    between atoms: _391  and  _392
REMARK  151  A    between atoms: _401  and  _403
REMARK  152  A    between atoms: _403  and  _404
REMARK  153  A    between atoms: _403  and  _406
REMARK  154  A    between atoms: _406  and  _407
REMARK  155  A    between atoms: _410  and  _412
REMARK  156  A    between atoms: _412  and  _413
REMARK  157  A    between atoms: _412  and  _415
REMARK  158  A    between atoms: _415  and  _416
REMARK  159  A    between atoms: _419  and  _421
REMARK  160  A    between atoms: _421  and  _422
REMARK  161  A    between atoms: _421  and  _424
REMARK  162  A    between atoms: _424  and  _425
REMARK  163  A    between atoms: _428  and  _430
REMARK  164  A    between atoms: _430  and  _431
REMARK  165  A    between atoms: _430  and  _433
REMARK  166  A    between atoms: _433  and  _434
REMARK  167  A    between atoms: _437  and  _439
REMARK  168  A    between atoms: _439  and  _440
REMARK  169  A    between atoms: _439  and  _442
REMARK  170  A    between atoms: _442  and  _443
REMARK  171  A    between atoms: _446  and  _448
REMARK  172  A    between atoms: _448  and  _449
REMARK  173  A    between atoms: _448  and  _451
REMARK  174  A    between atoms: _451  and  _452
REMARK  175  A    between atoms: _452  and  _453
REMARK  176  A    between atoms: _455  and  _457
REMARK  177  A    between atoms: _457  and  _458
REMARK  178  A    between atoms: _457  and  _460
REMARK  179  A    between atoms: _460  and  _461
REMARK  180  A    between atoms: _464  and  _466
REMARK  181  A    between atoms: _466  and  _467
REMARK  182  A    between atoms: _466  and  _469
REMARK  183  A    between atoms: _469  and  _470
REMARK  184  A    between atoms: _476  and  _478
REMARK  185  A    between atoms: _478  and  _479
REMARK  186  A    between atoms: _478  and  _481
REMARK  187  A    between atoms: _481  and  _482
REMARK  188  A    between atoms: _485  and  _487
REMARK  189  A    between atoms: _487  and  _488
REMARK  190  A    between atoms: _487  and  _490
REMARK  191  A    between atoms: _490  and  _491
REMARK  192  A    between atoms: _494  and  _496
REMARK  193  A    between atoms: _496  and  _497
REMARK  194  A    between atoms: _496  and  _499
REMARK  195  A    between atoms: _499  and  _500
REMARK  196  A    between atoms: _500  and  _501
REMARK  197  A    between atoms: _504  and  _506
REMARK  198  A    between atoms: _506  and  _507
REMARK  199  A    between atoms: _506  and  _509
REMARK  200  A    between atoms: _509  and  _510
REMARK  201  A    between atoms: _510  and  _511
REMARK  202  A    between atoms: _511  and  _512
REMARK  203  A    between atoms: _521  and  _523
REMARK  204  A    between atoms: _523  and  _524
REMARK  205  A    between atoms: _523  and  _526
REMARK  206  A    between atoms: _526  and  _527
REMARK  207  A    between atoms: _530  and  _532
REMARK  208  A    between atoms: _532  and  _533
REMARK  209  A    between atoms: _532  and  _535
REMARK  210  A    between atoms: _535  and  _536
REMARK  211  A    between atoms: _539  and  _541
REMARK  212  A    between atoms: _541  and  _542
REMARK  213  A    between atoms: _541  and  _544
REMARK  214  A    between atoms: _548  and  _549
REMARK  215  A    between atoms: _554  and  _556
REMARK  216  A    between atoms: _556  and  _557
REMARK  217  A    between atoms: _556  and  _559
REMARK  218  A    between atoms: _559  and  _560
REMARK  219  A    between atoms: _565  and  _567
REMARK  220  A    between atoms: _567  and  _568
REMARK  221  A    between atoms: _567  and  _570
REMARK  222  A    between atoms: _570  and  _571
REMARK  223  A    between atoms: _576  and  _577
REMARK  224  A    between atoms: _579  and  _581
REMARK  225  A    between atoms: _581  and  _582
REMARK  226  A    between atoms: _581  and  _584
REMARK  227  A    between atoms: _584  and  _585
REMARK  228  A    between atoms: _588  and  _590
REMARK  229  A    between atoms: _590  and  _591
REMARK  230  A    between atoms: _590  and  _593
REMARK  231  A    between atoms: _593  and  _594
REMARK  232  A    between atoms: _594  and  _595
REMARK  233  A    between atoms: _595  and  _596
REMARK  234  A    between atoms: _605  and  _607
REMARK  235  A    between atoms: _607  and  _608
REMARK  236  A    between atoms: _610  and  _612
REMARK  237  A    between atoms: _612  and  _613
REMARK  238  A    between atoms: _612  and  _615
REMARK  239  A    between atoms: _615  and  _616
REMARK  240  A    between atoms: _622  and  _624
REMARK  241  A    between atoms: _624  and  _625
REMARK  242  A    between atoms: _624  and  _627
REMARK  243  A    between atoms: _627  and  _628
REMARK  244  A    between atoms: _628  and  _629
REMARK  245  A    between atoms: _631  and  _633
REMARK  246  A    between atoms: _633  and  _634
REMARK  247  A    between atoms: _633  and  _636
REMARK  248  A    between atoms: _636  and  _637
REMARK                            x       y       z     vdW  Elec       q    Type
REMARK                         _______ _______ _______ _____ _____    ______ ____
ROOT
ATOM      1  O   HOH     1       0.550  24.534   9.346  0.00  0.00    +0.000 OA
ENDROOT
TORSDOF 0
REMARK  Name = ../refined-set-2016/4f7v/4f7v_pocket.pdb
REMARK  248 active torsions:
REMARK  status: ('A' for Active; 'I' for Inactive)
REMARK    1  A    between atoms: _1  and  _3
REMARK    2  A    between atoms: _3  and  _4
REMARK    3  A    between atoms: _3  and  _6
REMARK    4  A    between atoms: _6  and  _7
REMARK    5  A    between atoms: _12  and  _13
REMARK    6  A    between atoms: _15  and  _17
REMARK    7  A    between atoms: _17  and  _18
REMARK    8  A    between atoms: _17  and  _20
REMARK    9  A    between atoms: _20  and  _21
REMARK   10  A    between atoms: _24  and  _26
REMARK   11  A    between atoms: _26  and  _27
REMARK   12  A    between atoms: _30  and  _32
REMARK   13  A    between atoms: _32  and  _33
REMARK   14  A    between atoms: _32  and  _35
REMARK   15  A    between atoms: _35  and  _36
REMARK   16  A    between atoms: _39  and  _41
REMARK   17  A    between atoms: _41  and  _42
REMARK   18  A    between atoms: _44  and  _46
REMARK   19  A    between atoms: _46  and  _47
REMARK   20  A    between atoms: _46  and  _49
REMARK   21  A    between atoms: _49  and  _50
REMARK   22  A    between atoms: _52  and  _54
REMARK   23  A    between atoms: _54  and  _55
REMARK   24  A    between atoms: _54  and  _57
REMARK   25  A    between atoms: _57  and  _58
REMARK   26  A    between atoms: _63  and  _65
REMARK   27  A    between atoms: _65  and  _66
REMARK   28  A    between atoms: _65  and  _68
REMARK   29  A    between atoms: _68  and  _69
REMARK   30  A    between atoms: _74  and  _75
REMARK   31  A    between atoms: _77  and  _79
REMARK   32  A    between atoms: _79  and  _80
REMARK   33  A    between atoms: _79  and  _82
REMARK   34  A    between atoms: _82  and  _83
REMARK   35  A    between atoms: _83  and  _84
REMARK   36  A    between atoms: _84  and  _85
REMARK   37  A    between atoms: _94  and  _96
REMARK   38  A    between atoms: _96  and  _97
REMARK   39  A    between atoms: _96  and  _99
REMARK   40  A    between atoms: _99  and  _100
REMARK   41  A    between atoms: _104  and  _105
REMARK   42  A    between atoms: _111  and  _112
REMARK   43  A    between atoms: _117  and  _119
REMARK   44  A    between atoms: _119  and  _120
REMARK   45  A    between atoms: _119  and  _122
REMARK   46  A    between atoms: _122  and  _123
REMARK   47  A    between atoms: _126  and  _128
REMARK   48  A    between atoms: _128  and  _129
REMARK   49  A    between atoms: _132  and  _133
REMARK   50  A    between atoms: _138  and  _140
REMARK   51  A    between atoms: _140  and  _141
REMARK   52  A    between atoms: _140  and  _143
REMARK   53  A    between atoms: _143  and  _144
REMARK   54  A    between atoms: _144  and  _145
REMARK   55  A    between atoms: _150  and  _152
REMARK   56  A    between atoms: _152  and  _153
REMARK   57  A    between atoms: _152  and  _155
REMARK   58  A    between atoms: _155  and  _156
REMARK   59  A    between atoms: _156  and  _157
REMARK   60  A    between atoms: _163  and  _164
REMARK   61  A    between atoms: _169  and  _171
REMARK   62  A    between atoms: _171  and  _172
REMARK   63  A    between atoms: _171  and  _174
REMARK   64  A    between atoms: _174  and  _175
REMARK   65  A    between atoms: _178  and  _180
REMARK   66  A    between atoms: _180  and  _181
REMARK   67  A    between atoms: _180  and  _183
REMARK   68  A    between atoms: _183  and  _184
REMARK   69  A    between atoms: _189  and  _190
REMARK   70  A    between atoms: _192  and  _194
REMARK   71  A    between atoms: _194  and  _195
REMARK   72  A    between atoms: _194  and  _197
REMARK   73  A    between atoms: _197  and  _198
REMARK   74  A    between atoms: _201  and  _203
REMARK   75  A    between atoms: _203  and  _204
REMARK   76  A    between atoms: _203  and  _206
REMARK   77  A    between atoms: _206  and  _207
REMARK   78  A    between atoms: _212  and  _214
REMARK   79  A    between atoms: _214  and  _215
REMARK   80  A    between atoms: _218  and  _220
REMARK   81  A    between atoms: _220  and  _221
REMARK   82  A    between atoms: _220  and  _223
REMARK   83  A    between atoms: _223  and  _224
REMARK   84  A    between atoms: _227  and  _229
REMARK   85  A    between atoms: _229  and  _230
REMARK   86  A    between atoms: _229  and  _232
REMARK   87  A    between atoms: _232  and  _233
REMARK   88  A    between atoms: _236  and  _238
REMARK   89  A    between atoms: _238  and  _239
REMARK   90  A    between atoms: _238  and  _241
REMARK   91  A    between atoms: _241  and  _242
REMARK   92  A    between atoms: _245  and  _247
REMARK   93  A    between atoms: _247  and  _248
REMARK   94  A    between atoms: _247  and  _250
REMARK   95  A    between atoms: _250  and  _251
REMARK   96  A    between atoms: _251  and  _252
REMARK   97  A    between atoms: _257  and  _259
REMARK   98  A    between atoms: _259  and  _260
REMARK   99  A    between atoms: _259  and  _262
REMARK  100  A    between atoms: _262  and  _263
REMARK  101  A    between atoms: _263  and  _264
REMARK  102  A    between atoms: _264  and  _265
REMARK  103  A    between atoms: _274  and  _276
REMARK  104  A    between atoms: _276  and  _277
REMARK  105  A    between atoms: _276  and  _279
REMARK  106  A    between atoms: _279  and  _280
REMARK  107  A    between atoms: _280  and  _281
REMARK  108  A    between atoms: _284  and  _286
REMARK  109  A    between atoms: _286  and  _287
REMARK  110  A    between atoms: _286  and  _289
REMARK  111  A    between atoms: _289  and  _290
REMARK  112  A    between atoms: _293  and  _295
REMARK  113  A    between atoms: _295  and  _296
REMARK  114  A    between atoms: _295  and  _298
REMARK  115  A    between atoms: _298  and  _299
REMARK  116  A    between atoms: _299  and  _300
REMARK  117  A    between atoms: _300  and  _301
REMARK  118  A    between atoms: _310  and  _312
REMARK  119  A    between atoms: _312  and  _313
REMARK  120  A    between atoms: _312  and  _315
REMARK  121  A    between atoms: _315  and  _316
REMARK  122  A    between atoms: _316  and  _317
REMARK  123  A    between atoms: _317  and  _318
REMARK  124  A    between atoms: _318  and  _319
REMARK  125  A    between atoms: _323  and  _325
REMARK  126  A    between atoms: _325  and  _326
REMARK  127  A    between atoms: _329  and  _331
REMARK  128  A    between atoms: _331  and  _332
REMARK  129  A    between atoms: _331  and  _334
REMARK  130  A    between atoms: _334  and  _335
REMARK  131  A    between atoms: _335  and  _336
REMARK  132  A    between atoms: _339  and  _341
REMARK  133  A    between atoms: _341  and  _342
REMARK  134  A    between atoms: _341  and  _344
REMARK  135  A    between atoms: _344  and  _345
REMARK  136  A    between atoms: _345  and  _346
REMARK  137  A    between atoms: _346  and  _347
REMARK  138  A    between atoms: _356  and  _358
REMARK  139  A    between atoms: _358  and  _359
REMARK  140  A    between atoms: _358  and  _361
REMARK  141  A    between atoms: _361  and  _362
REMARK  142  A    between atoms: _372  and  _374
REMARK  143  A    between atoms: _374  and  _375
REMARK  144  A    between atoms: _378  and  _379
REMARK  145  A    between atoms: _384  and  _386
REMARK  146  A    between atoms: _386  and  _387
REMARK  147  A    between atoms: _386  and  _389
REMARK  148  A    between atoms: _389  and  _390
REMARK  149  A    between atoms: _390  and  _391
REMARK  150  A    between atoms: _391  and  _392
REMARK  151  A    between atoms: _401  and  _403
REMARK  152  A    between atoms: _403  and  _404
REMARK  153  A    between atoms: _403  and  _406
REMARK  154  A    between atoms: _406  and  _407
REMARK  155  A    between atoms: _410  and  _412
REMARK  156  A    between atoms: _412  and  _413
REMARK  157  A    between atoms: _412  and  _415
REMARK  158  A    between atoms: _415  and  _416
REMARK  159  A    between atoms: _419  and  _421
REMARK  160  A    between atoms: _421  and  _422
REMARK  161  A    between atoms: _421  and  _424
REMARK  162  A    between atoms: _424  and  _425
REMARK  163  A    between atoms: _428  and  _430
REMARK  164  A    between atoms: _430  and  _431
REMARK  165  A    between atoms: _430  and  _433
REMARK  166  A    between atoms: _433  and  _434
REMARK  167  A    between atoms: _437  and  _439
REMARK  168  A    between atoms: _439  and  _440
REMARK  169  A    between atoms: _439  and  _442
REMARK  170  A    between atoms: _442  and  _443
REMARK  171  A    between atoms: _446  and  _448
REMARK  172  A    between atoms: _448  and  _449
REMARK  173  A    between atoms: _448  and  _451
REMARK  174  A    between atoms: _451  and  _452
REMARK  175  A    between atoms: _452  and  _453
REMARK  176  A    between atoms: _455  and  _457
REMARK  177  A    between atoms: _457  and  _458
REMARK  178  A    between atoms: _457  and  _460
REMARK  179  A    between atoms: _460  and  _461
REMARK  180  A    between atoms: _464  and  _466
REMARK  181  A    between atoms: _466  and  _467
REMARK  182  A    between atoms: _466  and  _469
REMARK  183  A    between atoms: _469  and  _470
REMARK  184  A    between atoms: _476  and  _478
REMARK  185  A    between atoms: _478  and  _479
REMARK  186  A    between atoms: _478  and  _481
REMARK  187  A    between atoms: _481  and  _482
REMARK  188  A    between atoms: _485  and  _487
REMARK  189  A    between atoms: _487  and  _488
REMARK  190  A    between atoms: _487  and  _490
REMARK  191  A    between atoms: _490  and  _491
REMARK  192  A    between atoms: _494  and  _496
REMARK  193  A    between atoms: _496  and  _497
REMARK  194  A    between atoms: _496  and  _499
REMARK  195  A    between atoms: _499  and  _500
REMARK  196  A    between atoms: _500  and  _501
REMARK  197  A    between atoms: _504  and  _506
REMARK  198  A    between atoms: _506  and  _507
REMARK  199  A    between atoms: _506  and  _509
REMARK  200  A    between atoms: _509  and  _510
REMARK  201  A    between atoms: _510  and  _511
REMARK  202  A    between atoms: _511  and  _512
REMARK  203  A    between atoms: _521  and  _523
REMARK  204  A    between atoms: _523  and  _524
REMARK  205  A    between atoms: _523  and  _526
REMARK  206  A    between atoms: _526  and  _527
REMARK  207  A    between atoms: _530  and  _532
REMARK  208  A    between atoms: _532  and  _533
REMARK  209  A    between atoms: _532  and  _535
REMARK  210  A    between atoms: _535  and  _536
REMARK  211  A    between atoms: _539  and  _541
REMARK  212  A    between atoms: _541  and  _542
REMARK  213  A    between atoms: _541  and  _544
REMARK  214  A    between atoms: _548  and  _549
REMARK  215  A    between atoms: _554  and  _556
REMARK  216  A    between atoms: _556  and  _557
REMARK  217  A    between atoms: _556  and  _559
REMARK  218  A    between atoms: _559  and  _560
REMARK  219  A    between atoms: _565  and  _567
REMARK  220  A    between atoms: _567  and  _568
REMARK  221  A    between atoms: _567  and  _570
REMARK  222  A    between atoms: _570  and  _571
REMARK  223  A    between atoms: _576  and  _577
REMARK  224  A    between atoms: _579  and  _581
REMARK  225  A    between atoms: _581  and  _582
REMARK  226  A    between atoms: _581  and  _584
REMARK  227  A    between atoms: _584  and  _585
REMARK  228  A    between atoms: _588  and  _590
REMARK  229  A    between atoms: _590  and  _591
REMARK  230  A    between atoms: _590  and  _593
REMARK  231  A    between atoms: _593  and  _594
REMARK  232  A    between atoms: _594  and  _595
REMARK  233  A    between atoms: _595  and  _596
REMARK  234  A    between atoms: _605  and  _607
REMARK  235  A    between atoms: _607  and  _608
REMARK  236  A    between atoms: _610  and  _612
REMARK  237  A    between atoms: _612  and  _613
REMARK  238  A    between atoms: _612  and  _615
REMARK  239  A    between atoms: _615  and  _616
REMARK  240  A    between atoms: _622  and  _624
REMARK  241  A    between atoms: _624  and  _625
REMARK  242  A    between atoms: _624  and  _627
REMARK  243  A    between atoms: _627  and  _628
REMARK  244  A    between atoms: _628  and  _629
REMARK  245  A    between atoms: _631  and  _633
REMARK  246  A    between atoms: _633  and  _634
REMARK  247  A    between atoms: _633  and  _636
REMARK  248  A    between atoms: _636  and  _637
REMARK                            x       y       z     vdW  Elec       q    Type
REMARK                         _______ _______ _______ _____ _____    ______ ____
ROOT
ATOM      1  O   HOH     1      11.551  22.844  18.153  0.00  0.00    +0.000 OA
ENDROOT
TORSDOF 0
REMARK  Name = ../refined-set-2016/4f7v/4f7v_pocket.pdb
REMARK  248 active torsions:
REMARK  status: ('A' for Active; 'I' for Inactive)
REMARK    1  A    between atoms: _1  and  _3
REMARK    2  A    between atoms: _3  and  _4
REMARK    3  A    between atoms: _3  and  _6
REMARK    4  A    between atoms: _6  and  _7
REMARK    5  A    between atoms: _12  and  _13
REMARK    6  A    between atoms: _15  and  _17
REMARK    7  A    between atoms: _17  and  _18
REMARK    8  A    between atoms: _17  and  _20
REMARK    9  A    between atoms: _20  and  _21
REMARK   10  A    between atoms: _24  and  _26
REMARK   11  A    between atoms: _26  and  _27
REMARK   12  A    between atoms: _30  and  _32
REMARK   13  A    between atoms: _32  and  _33
REMARK   14  A    between atoms: _32  and  _35
REMARK   15  A    between atoms: _35  and  _36
REMARK   16  A    between atoms: _39  and  _41
REMARK   17  A    between atoms: _41  and  _42
REMARK   18  A    between atoms: _44  and  _46
REMARK   19  A    between atoms: _46  and  _47
REMARK   20  A    between atoms: _46  and  _49
REMARK   21  A    between atoms: _49  and  _50
REMARK   22  A    between atoms: _52  and  _54
REMARK   23  A    between atoms: _54  and  _55
REMARK   24  A    between atoms: _54  and  _57
REMARK   25  A    between atoms: _57  and  _58
REMARK   26  A    between atoms: _63  and  _65
REMARK   27  A    between atoms: _65  and  _66
REMARK   28  A    between atoms: _65  and  _68
REMARK   29  A    between atoms: _68  and  _69
REMARK   30  A    between atoms: _74  and  _75
REMARK   31  A    between atoms: _77  and  _79
REMARK   32  A    between atoms: _79  and  _80
REMARK   33  A    between atoms: _79  and  _82
REMARK   34  A    between atoms: _82  and  _83
REMARK   35  A    between atoms: _83  and  _84
REMARK   36  A    between atoms: _84  and  _85
REMARK   37  A    between atoms: _94  and  _96
REMARK   38  A    between atoms: _96  and  _97
REMARK   39  A    between atoms: _96  and  _99
REMARK   40  A    between atoms: _99  and  _100
REMARK   41  A    between atoms: _104  and  _105
REMARK   42  A    between atoms: _111  and  _112
REMARK   43  A    between atoms: _117  and  _119
REMARK   44  A    between atoms: _119  and  _120
REMARK   45  A    between atoms: _119  and  _122
REMARK   46  A    between atoms: _122  and  _123
REMARK   47  A    between atoms: _126  and  _128
REMARK   48  A    between atoms: _128  and  _129
REMARK   49  A    between atoms: _132  and  _133
REMARK   50  A    between atoms: _138  and  _140
REMARK   51  A    between atoms: _140  and  _141
REMARK   52  A    between atoms: _140  and  _143
REMARK   53  A    between atoms: _143  and  _144
REMARK   54  A    between atoms: _144  and  _145
REMARK   55  A    between atoms: _150  and  _152
REMARK   56  A    between atoms: _152  and  _153
REMARK   57  A    between atoms: _152  and  _155
REMARK   58  A    between atoms: _155  and  _156
REMARK   59  A    between atoms: _156  and  _157
REMARK   60  A    between atoms: _163  and  _164
REMARK   61  A    between atoms: _169  and  _171
REMARK   62  A    between atoms: _171  and  _172
REMARK   63  A    between atoms: _171  and  _174
REMARK   64  A    between atoms: _174  and  _175
REMARK   65  A    between atoms: _178  and  _180
REMARK   66  A    between atoms: _180  and  _181
REMARK   67  A    between atoms: _180  and  _183
REMARK   68  A    between atoms: _183  and  _184
REMARK   69  A    between atoms: _189  and  _190
REMARK   70  A    between atoms: _192  and  _194
REMARK   71  A    between atoms: _194  and  _195
REMARK   72  A    between atoms: _194  and  _197
REMARK   73  A    between atoms: _197  and  _198
REMARK   74  A    between atoms: _201  and  _203
REMARK   75  A    between atoms: _203  and  _204
REMARK   76  A    between atoms: _203  and  _206
REMARK   77  A    between atoms: _206  and  _207
REMARK   78  A    between atoms: _212  and  _214
REMARK   79  A    between atoms: _214  and  _215
REMARK   80  A    between atoms: _218  and  _220
REMARK   81  A    between atoms: _220  and  _221
REMARK   82  A    between atoms: _220  and  _223
REMARK   83  A    between atoms: _223  and  _224
REMARK   84  A    between atoms: _227  and  _229
REMARK   85  A    between atoms: _229  and  _230
REMARK   86  A    between atoms: _229  and  _232
REMARK   87  A    between atoms: _232  and  _233
REMARK   88  A    between atoms: _236  and  _238
REMARK   89  A    between atoms: _238  and  _239
REMARK   90  A    between atoms: _238  and  _241
REMARK   91  A    between atoms: _241  and  _242
REMARK   92  A    between atoms: _245  and  _247
REMARK   93  A    between atoms: _247  and  _248
REMARK   94  A    between atoms: _247  and  _250
REMARK   95  A    between atoms: _250  and  _251
REMARK   96  A    between atoms: _251  and  _252
REMARK   97  A    between atoms: _257  and  _259
REMARK   98  A    between atoms: _259  and  _260
REMARK   99  A    between atoms: _259  and  _262
REMARK  100  A    between atoms: _262  and  _263
REMARK  101  A    between atoms: _263  and  _264
REMARK  102  A    between atoms: _264  and  _265
REMARK  103  A    between atoms: _274  and  _276
REMARK  104  A    between atoms: _276  and  _277
REMARK  105  A    between atoms: _276  and  _279
REMARK  106  A    between atoms: _279  and  _280
REMARK  107  A    between atoms: _280  and  _281
REMARK  108  A    between atoms: _284  and  _286
REMARK  109  A    between atoms: _286  and  _287
REMARK  110  A    between atoms: _286  and  _289
REMARK  111  A    between atoms: _289  and  _290
REMARK  112  A    between atoms: _293  and  _295
REMARK  113  A    between atoms: _295  and  _296
REMARK  114  A    between atoms: _295  and  _298
REMARK  115  A    between atoms: _298  and  _299
REMARK  116  A    between atoms: _299  and  _300
REMARK  117  A    between atoms: _300  and  _301
REMARK  118  A    between atoms: _310  and  _312
REMARK  119  A    between atoms: _312  and  _313
REMARK  120  A    between atoms: _312  and  _315
REMARK  121  A    between atoms: _315  and  _316
REMARK  122  A    between atoms: _316  and  _317
REMARK  123  A    between atoms: _317  and  _318
REMARK  124  A    between atoms: _318  and  _319
REMARK  125  A    between atoms: _323  and  _325
REMARK  126  A    between atoms: _325  and  _326
REMARK  127  A    between atoms: _329  and  _331
REMARK  128  A    between atoms: _331  and  _332
REMARK  129  A    between atoms: _331  and  _334
REMARK  130  A    between atoms: _334  and  _335
REMARK  131  A    between atoms: _335  and  _336
REMARK  132  A    between atoms: _339  and  _341
REMARK  133  A    between atoms: _341  and  _342
REMARK  134  A    between atoms: _341  and  _344
REMARK  135  A    between atoms: _344  and  _345
REMARK  136  A    between atoms: _345  and  _346
REMARK  137  A    between atoms: _346  and  _347
REMARK  138  A    between atoms: _356  and  _358
REMARK  139  A    between atoms: _358  and  _359
REMARK  140  A    between atoms: _358  and  _361
REMARK  141  A    between atoms: _361  and  _362
REMARK  142  A    between atoms: _372  and  _374
REMARK  143  A    between atoms: _374  and  _375
REMARK  144  A    between atoms: _378  and  _379
REMARK  145  A    between atoms: _384  and  _386
REMARK  146  A    between atoms: _386  and  _387
REMARK  147  A    between atoms: _386  and  _389
REMARK  148  A    between atoms: _389  and  _390
REMARK  149  A    between atoms: _390  and  _391
REMARK  150  A    between atoms: _391  and  _392
REMARK  151  A    between atoms: _401  and  _403
REMARK  152  A    between atoms: _403  and  _404
REMARK  153  A    between atoms: _403  and  _406
REMARK  154  A    between atoms: _406  and  _407
REMARK  155  A    between atoms: _410  and  _412
REMARK  156  A    between atoms: _412  and  _413
REMARK  157  A    between atoms: _412  and  _415
REMARK  158  A    between atoms: _415  and  _416
REMARK  159  A    between atoms: _419  and  _421
REMARK  160  A    between atoms: _421  and  _422
REMARK  161  A    between atoms: _421  and  _424
REMARK  162  A    between atoms: _424  and  _425
REMARK  163  A    between atoms: _428  and  _430
REMARK  164  A    between atoms: _430  and  _431
REMARK  165  A    between atoms: _430  and  _433
REMARK  166  A    between atoms: _433  and  _434
REMARK  167  A    between atoms: _437  and  _439
REMARK  168  A    between atoms: _439  and  _440
REMARK  169  A    between atoms: _439  and  _442
REMARK  170  A    between atoms: _442  and  _443
REMARK  171  A    between atoms: _446  and  _448
REMARK  172  A    between atoms: _448  and  _449
REMARK  173  A    between atoms: _448  and  _451
REMARK  174  A    between atoms: _451  and  _452
REMARK  175  A    between atoms: _452  and  _453
REMARK  176  A    between atoms: _455  and  _457
REMARK  177  A    between atoms: _457  and  _458
REMARK  178  A    between atoms: _457  and  _460
REMARK  179  A    between atoms: _460  and  _461
REMARK  180  A    between atoms: _464  and  _466
REMARK  181  A    between atoms: _466  and  _467
REMARK  182  A    between atoms: _466  and  _469
REMARK  183  A    between atoms: _469  and  _470
REMARK  184  A    between atoms: _476  and  _478
REMARK  185  A    between atoms: _478  and  _479
REMARK  186  A    between atoms: _478  and  _481
REMARK  187  A    between atoms: _481  and  _482
REMARK  188  A    between atoms: _485  and  _487
REMARK  189  A    between atoms: _487  and  _488
REMARK  190  A    between atoms: _487  and  _490
REMARK  191  A    between atoms: _490  and  _491
REMARK  192  A    between atoms: _494  and  _496
REMARK  193  A    between atoms: _496  and  _497
REMARK  194  A    between atoms: _496  and  _499
REMARK  195  A    between atoms: _499  and  _500
REMARK  196  A    between atoms: _500  and  _501
REMARK  197  A    between atoms: _504  and  _506
REMARK  198  A    between atoms: _506  and  _507
REMARK  199  A    between atoms: _506  and  _509
REMARK  200  A    between atoms: _509  and  _510
REMARK  201  A    between atoms: _510  and  _511
REMARK  202  A    between atoms: _511  and  _512
REMARK  203  A    between atoms: _521  and  _523
REMARK  204  A    between atoms: _523  and  _524
REMARK  205  A    between atoms: _523  and  _526
REMARK  206  A    between atoms: _526  and  _527
REMARK  207  A    between atoms: _530  and  _532
REMARK  208  A    between atoms: _532  and  _533
REMARK  209  A    between atoms: _532  and  _535
REMARK  210  A    between atoms: _535  and  _536
REMARK  211  A    between atoms: _539  and  _541
REMARK  212  A    between atoms: _541  and  _542
REMARK  213  A    between atoms: _541  and  _544
REMARK  214  A    between atoms: _548  and  _549
REMARK  215  A    between atoms: _554  and  _556
REMARK  216  A    between atoms: _556  and  _557
REMARK  217  A    between atoms: _556  and  _559
REMARK  218  A    between atoms: _559  and  _560
REMARK  219  A    between atoms: _565  and  _567
REMARK  220  A    between atoms: _567  and  _568
REMARK  221  A    between atoms: _567  and  _570
REMARK  222  A    between atoms: _570  and  _571
REMARK  223  A    between atoms: _576  and  _577
REMARK  224  A    between atoms: _579  and  _581
REMARK  225  A    between atoms: _581  and  _582
REMARK  226  A    between atoms: _581  and  _584
REMARK  227  A    between atoms: _584  and  _585
REMARK  228  A    between atoms: _588  and  _590
REMARK  229  A    between atoms: _590  and  _591
REMARK  230  A    between atoms: _590  and  _593
REMARK  231  A    between atoms: _593  and  _594
REMARK  232  A    between atoms: _594  and  _595
REMARK  233  A    between atoms: _595  and  _596
REMARK  234  A    between atoms: _605  and  _607
REMARK  235  A    between atoms: _607  and  _608
REMARK  236  A    between atoms: _610  and  _612
REMARK  237  A    between atoms: _612  and  _613
REMARK  238  A    between atoms: _612  and  _615
REMARK  239  A    between atoms: _615  and  _616
REMARK  240  A    between atoms: _622  and  _624
REMARK  241  A    between atoms: _624  and  _625
REMARK  242  A    between atoms: _624  and  _627
REMARK  243  A    between atoms: _627  and  _628
REMARK  244  A    between atoms: _628  and  _629
REMARK  245  A    between atoms: _631  and  _633
REMARK  246  A    between atoms: _633  and  _634
REMARK  247  A    between atoms: _633  and  _636
REMARK  248  A    between atoms: _636  and  _637
REMARK                            x       y       z     vdW  Elec       q    Type
REMARK                         _______ _______ _______ _____ _____    ______ ____
ROOT
ATOM      1  O   HOH     1       9.649  23.064  20.439  0.00  0.00    +0.000 OA
ENDROOT
TORSDOF 0
REMARK  Name = ../refined-set-2016/4f7v/4f7v_pocket.pdb
REMARK  248 active torsions:
REMARK  status: ('A' for Active; 'I' for Inactive)
REMARK    1  A    between atoms: _1  and  _3
REMARK    2  A    between atoms: _3  and  _4
REMARK    3  A    between atoms: _3  and  _6
REMARK    4  A    between atoms: _6  and  _7
REMARK    5  A    between atoms: _12  and  _13
REMARK    6  A    between atoms: _15  and  _17
REMARK    7  A    between atoms: _17  and  _18
REMARK    8  A    between atoms: _17  and  _20
REMARK    9  A    between atoms: _20  and  _21
REMARK   10  A    between atoms: _24  and  _26
REMARK   11  A    between atoms: _26  and  _27
REMARK   12  A    between atoms: _30  and  _32
REMARK   13  A    between atoms: _32  and  _33
REMARK   14  A    between atoms: _32  and  _35
REMARK   15  A    between atoms: _35  and  _36
REMARK   16  A    between atoms: _39  and  _41
REMARK   17  A    between atoms: _41  and  _42
REMARK   18  A    between atoms: _44  and  _46
REMARK   19  A    between atoms: _46  and  _47
REMARK   20  A    between atoms: _46  and  _49
REMARK   21  A    between atoms: _49  and  _50
REMARK   22  A    between atoms: _52  and  _54
REMARK   23  A    between atoms: _54  and  _55
REMARK   24  A    between atoms: _54  and  _57
REMARK   25  A    between atoms: _57  and  _58
REMARK   26  A    between atoms: _63  and  _65
REMARK   27  A    between atoms: _65  and  _66
REMARK   28  A    between atoms: _65  and  _68
REMARK   29  A    between atoms: _68  and  _69
REMARK   30  A    between atoms: _74  and  _75
REMARK   31  A    between atoms: _77  and  _79
REMARK   32  A    between atoms: _79  and  _80
REMARK   33  A    between atoms: _79  and  _82
REMARK   34  A    between atoms: _82  and  _83
REMARK   35  A    between atoms: _83  and  _84
REMARK   36  A    between atoms: _84  and  _85
REMARK   37  A    between atoms: _94  and  _96
REMARK   38  A    between atoms: _96  and  _97
REMARK   39  A    between atoms: _96  and  _99
REMARK   40  A    between atoms: _99  and  _100
REMARK   41  A    between atoms: _104  and  _105
REMARK   42  A    between atoms: _111  and  _112
REMARK   43  A    between atoms: _117  and  _119
REMARK   44  A    between atoms: _119  and  _120
REMARK   45  A    between atoms: _119  and  _122
REMARK   46  A    between atoms: _122  and  _123
REMARK   47  A    between atoms: _126  and  _128
REMARK   48  A    between atoms: _128  and  _129
REMARK   49  A    between atoms: _132  and  _133
REMARK   50  A    between atoms: _138  and  _140
REMARK   51  A    between atoms: _140  and  _141
REMARK   52  A    between atoms: _140  and  _143
REMARK   53  A    between atoms: _143  and  _144
REMARK   54  A    between atoms: _144  and  _145
REMARK   55  A    between atoms: _150  and  _152
REMARK   56  A    between atoms: _152  and  _153
REMARK   57  A    between atoms: _152  and  _155
REMARK   58  A    between atoms: _155  and  _156
REMARK   59  A    between atoms: _156  and  _157
REMARK   60  A    between atoms: _163  and  _164
REMARK   61  A    between atoms: _169  and  _171
REMARK   62  A    between atoms: _171  and  _172
REMARK   63  A    between atoms: _171  and  _174
REMARK   64  A    between atoms: _174  and  _175
REMARK   65  A    between atoms: _178  and  _180
REMARK   66  A    between atoms: _180  and  _181
REMARK   67  A    between atoms: _180  and  _183
REMARK   68  A    between atoms: _183  and  _184
REMARK   69  A    between atoms: _189  and  _190
REMARK   70  A    between atoms: _192  and  _194
REMARK   71  A    between atoms: _194  and  _195
REMARK   72  A    between atoms: _194  and  _197
REMARK   73  A    between atoms: _197  and  _198
REMARK   74  A    between atoms: _201  and  _203
REMARK   75  A    between atoms: _203  and  _204
REMARK   76  A    between atoms: _203  and  _206
REMARK   77  A    between atoms: _206  and  _207
REMARK   78  A    between atoms: _212  and  _214
REMARK   79  A    between atoms: _214  and  _215
REMARK   80  A    between atoms: _218  and  _220
REMARK   81  A    between atoms: _220  and  _221
REMARK   82  A    between atoms: _220  and  _223
REMARK   83  A    between atoms: _223  and  _224
REMARK   84  A    between atoms: _227  and  _229
REMARK   85  A    between atoms: _229  and  _230
REMARK   86  A    between atoms: _229  and  _232
REMARK   87  A    between atoms: _232  and  _233
REMARK   88  A    between atoms: _236  and  _238
REMARK   89  A    between atoms: _238  and  _239
REMARK   90  A    between atoms: _238  and  _241
REMARK   91  A    between atoms: _241  and  _242
REMARK   92  A    between atoms: _245  and  _247
REMARK   93  A    between atoms: _247  and  _248
REMARK   94  A    between atoms: _247  and  _250
REMARK   95  A    between atoms: _250  and  _251
REMARK   96  A    between atoms: _251  and  _252
REMARK   97  A    between atoms: _257  and  _259
REMARK   98  A    between atoms: _259  and  _260
REMARK   99  A    between atoms: _259  and  _262
REMARK  100  A    between atoms: _262  and  _263
REMARK  101  A    between atoms: _263  and  _264
REMARK  102  A    between atoms: _264  and  _265
REMARK  103  A    between atoms: _274  and  _276
REMARK  104  A    between atoms: _276  and  _277
REMARK  105  A    between atoms: _276  and  _279
REMARK  106  A    between atoms: _279  and  _280
REMARK  107  A    between atoms: _280  and  _281
REMARK  108  A    between atoms: _284  and  _286
REMARK  109  A    between atoms: _286  and  _287
REMARK  110  A    between atoms: _286  and  _289
REMARK  111  A    between atoms: _289  and  _290
REMARK  112  A    between atoms: _293  and  _295
REMARK  113  A    between atoms: _295  and  _296
REMARK  114  A    between atoms: _295  and  _298
REMARK  115  A    between atoms: _298  and  _299
REMARK  116  A    between atoms: _299  and  _300
REMARK  117  A    between atoms: _300  and  _301
REMARK  118  A    between atoms: _310  and  _312
REMARK  119  A    between atoms: _312  and  _313
REMARK  120  A    between atoms: _312  and  _315
REMARK  121  A    between atoms: _315  and  _316
REMARK  122  A    between atoms: _316  and  _317
REMARK  123  A    between atoms: _317  and  _318
REMARK  124  A    between atoms: _318  and  _319
REMARK  125  A    between atoms: _323  and  _325
REMARK  126  A    between atoms: _325  and  _326
REMARK  127  A    between atoms: _329  and  _331
REMARK  128  A    between atoms: _331  and  _332
REMARK  129  A    between atoms: _331  and  _334
REMARK  130  A    between atoms: _334  and  _335
REMARK  131  A    between atoms: _335  and  _336
REMARK  132  A    between atoms: _339  and  _341
REMARK  133  A    between atoms: _341  and  _342
REMARK  134  A    between atoms: _341  and  _344
REMARK  135  A    between atoms: _344  and  _345
REMARK  136  A    between atoms: _345  and  _346
REMARK  137  A    between atoms: _346  and  _347
REMARK  138  A    between atoms: _356  and  _358
REMARK  139  A    between atoms: _358  and  _359
REMARK  140  A    between atoms: _358  and  _361
REMARK  141  A    between atoms: _361  and  _362
REMARK  142  A    between atoms: _372  and  _374
REMARK  143  A    between atoms: _374  and  _375
REMARK  144  A    between atoms: _378  and  _379
REMARK  145  A    between atoms: _384  and  _386
REMARK  146  A    between atoms: _386  and  _387
REMARK  147  A    between atoms: _386  and  _389
REMARK  148  A    between atoms: _389  and  _390
REMARK  149  A    between atoms: _390  and  _391
REMARK  150  A    between atoms: _391  and  _392
REMARK  151  A    between atoms: _401  and  _403
REMARK  152  A    between atoms: _403  and  _404
REMARK  153  A    between atoms: _403  and  _406
REMARK  154  A    between atoms: _406  and  _407
REMARK  155  A    between atoms: _410  and  _412
REMARK  156  A    between atoms: _412  and  _413
REMARK  157  A    between atoms: _412  and  _415
REMARK  158  A    between atoms: _415  and  _416
REMARK  159  A    between atoms: _419  and  _421
REMARK  160  A    between atoms: _421  and  _422
REMARK  161  A    between atoms: _421  and  _424
REMARK  162  A    between atoms: _424  and  _425
REMARK  163  A    between atoms: _428  and  _430
REMARK  164  A    between atoms: _430  and  _431
REMARK  165  A    between atoms: _430  and  _433
REMARK  166  A    between atoms: _433  and  _434
REMARK  167  A    between atoms: _437  and  _439
REMARK  168  A    between atoms: _439  and  _440
REMARK  169  A    between atoms: _439  and  _442
REMARK  170  A    between atoms: _442  and  _443
REMARK  171  A    between atoms: _446  and  _448
REMARK  172  A    between atoms: _448  and  _449
REMARK  173  A    between atoms: _448  and  _451
REMARK  174  A    between atoms: _451  and  _452
REMARK  175  A    between atoms: _452  and  _453
REMARK  176  A    between atoms: _455  and  _457
REMARK  177  A    between atoms: _457  and  _458
REMARK  178  A    between atoms: _457  and  _460
REMARK  179  A    between atoms: _460  and  _461
REMARK  180  A    between atoms: _464  and  _466
REMARK  181  A    between atoms: _466  and  _467
REMARK  182  A    between atoms: _466  and  _469
REMARK  183  A    between atoms: _469  and  _470
REMARK  184  A    between atoms: _476  and  _478
REMARK  185  A    between atoms: _478  and  _479
REMARK  186  A    between atoms: _478  and  _481
REMARK  187  A    between atoms: _481  and  _482
REMARK  188  A    between atoms: _485  and  _487
REMARK  189  A    between atoms: _487  and  _488
REMARK  190  A    between atoms: _487  and  _490
REMARK  191  A    between atoms: _490  and  _491
REMARK  192  A    between atoms: _494  and  _496
REMARK  193  A    between atoms: _496  and  _497
REMARK  194  A    between atoms: _496  and  _499
REMARK  195  A    between atoms: _499  and  _500
REMARK  196  A    between atoms: _500  and  _501
REMARK  197  A    between atoms: _504  and  _506
REMARK  198  A    between atoms: _506  and  _507
REMARK  199  A    between atoms: _506  and  _509
REMARK  200  A    between atoms: _509  and  _510
REMARK  201  A    between atoms: _510  and  _511
REMARK  202  A    between atoms: _511  and  _512
REMARK  203  A    between atoms: _521  and  _523
REMARK  204  A    between atoms: _523  and  _524
REMARK  205  A    between atoms: _523  and  _526
REMARK  206  A    between atoms: _526  and  _527
REMARK  207  A    between atoms: _530  and  _532
REMARK  208  A    between atoms: _532  and  _533
REMARK  209  A    between atoms: _532  and  _535
REMARK  210  A    between atoms: _535  and  _536
REMARK  211  A    between atoms: _539  and  _541
REMARK  212  A    between atoms: _541  and  _542
REMARK  213  A    between atoms: _541  and  _544
REMARK  214  A    between atoms: _548  and  _549
REMARK  215  A    between atoms: _554  and  _556
REMARK  216  A    between atoms: _556  and  _557
REMARK  217  A    between atoms: _556  and  _559
REMARK  218  A    between atoms: _559  and  _560
REMARK  219  A    between atoms: _565  and  _567
REMARK  220  A    between atoms: _567  and  _568
REMARK  221  A    between atoms: _567  and  _570
REMARK  222  A    between atoms: _570  and  _571
REMARK  223  A    between atoms: _576  and  _577
REMARK  224  A    between atoms: _579  and  _581
REMARK  225  A    between atoms: _581  and  _582
REMARK  226  A    between atoms: _581  and  _584
REMARK  227  A    between atoms: _584  and  _585
REMARK  228  A    between atoms: _588  and  _590
REMARK  229  A    between atoms: _590  and  _591
REMARK  230  A    between atoms: _590  and  _593
REMARK  231  A    between atoms: _593  and  _594
REMARK  232  A    between atoms: _594  and  _595
REMARK  233  A    between atoms: _595  and  _596
REMARK  234  A    between atoms: _605  and  _607
REMARK  235  A    between atoms: _607  and  _608
REMARK  236  A    between atoms: _610  and  _612
REMARK  237  A    between atoms: _612  and  _613
REMARK  238  A    between atoms: _612  and  _615
REMARK  239  A    between atoms: _615  and  _616
REMARK  240  A    between atoms: _622  and  _624
REMARK  241  A    between atoms: _624  and  _625
REMARK  242  A    between atoms: _624  and  _627
REMARK  243  A    between atoms: _627  and  _628
REMARK  244  A    between atoms: _628  and  _629
REMARK  245  A    between atoms: _631  and  _633
REMARK  246  A    between atoms: _633  and  _634
REMARK  247  A    between atoms: _633  and  _636
REMARK  248  A    between atoms: _636  and  _637
REMARK                            x       y       z     vdW  Elec       q    Type
REMARK                         _______ _______ _______ _____ _____    ______ ____
ROOT
ATOM      1  O   HOH     1       9.702  24.868   9.919  0.00  0.00    +0.000 OA
ENDROOT
TORSDOF 0
REMARK  Name = ../refined-set-2016/4f7v/4f7v_pocket.pdb
REMARK  248 active torsions:
REMARK  status: ('A' for Active; 'I' for Inactive)
REMARK    1  A    between atoms: _1  and  _3
REMARK    2  A    between atoms: _3  and  _4
REMARK    3  A    between atoms: _3  and  _6
REMARK    4  A    between atoms: _6  and  _7
REMARK    5  A    between atoms: _12  and  _13
REMARK    6  A    between atoms: _15  and  _17
REMARK    7  A    between atoms: _17  and  _18
REMARK    8  A    between atoms: _17  and  _20
REMARK    9  A    between atoms: _20  and  _21
REMARK   10  A    between atoms: _24  and  _26
REMARK   11  A    between atoms: _26  and  _27
REMARK   12  A    between atoms: _30  and  _32
REMARK   13  A    between atoms: _32  and  _33
REMARK   14  A    between atoms: _32  and  _35
REMARK   15  A    between atoms: _35  and  _36
REMARK   16  A    between atoms: _39  and  _41
REMARK   17  A    between atoms: _41  and  _42
REMARK   18  A    between atoms: _44  and  _46
REMARK   19  A    between atoms: _46  and  _47
REMARK   20  A    between atoms: _46  and  _49
REMARK   21  A    between atoms: _49  and  _50
REMARK   22  A    between atoms: _52  and  _54
REMARK   23  A    between atoms: _54  and  _55
REMARK   24  A    between atoms: _54  and  _57
REMARK   25  A    between atoms: _57  and  _58
REMARK   26  A    between atoms: _63  and  _65
REMARK   27  A    between atoms: _65  and  _66
REMARK   28  A    between atoms: _65  and  _68
REMARK   29  A    between atoms: _68  and  _69
REMARK   30  A    between atoms: _74  and  _75
REMARK   31  A    between atoms: _77  and  _79
REMARK   32  A    between atoms: _79  and  _80
REMARK   33  A    between atoms: _79  and  _82
REMARK   34  A    between atoms: _82  and  _83
REMARK   35  A    between atoms: _83  and  _84
REMARK   36  A    between atoms: _84  and  _85
REMARK   37  A    between atoms: _94  and  _96
REMARK   38  A    between atoms: _96  and  _97
REMARK   39  A    between atoms: _96  and  _99
REMARK   40  A    between atoms: _99  and  _100
REMARK   41  A    between atoms: _104  and  _105
REMARK   42  A    between atoms: _111  and  _112
REMARK   43  A    between atoms: _117  and  _119
REMARK   44  A    between atoms: _119  and  _120
REMARK   45  A    between atoms: _119  and  _122
REMARK   46  A    between atoms: _122  and  _123
REMARK   47  A    between atoms: _126  and  _128
REMARK   48  A    between atoms: _128  and  _129
REMARK   49  A    between atoms: _132  and  _133
REMARK   50  A    between atoms: _138  and  _140
REMARK   51  A    between atoms: _140  and  _141
REMARK   52  A    between atoms: _140  and  _143
REMARK   53  A    between atoms: _143  and  _144
REMARK   54  A    between atoms: _144  and  _145
REMARK   55  A    between atoms: _150  and  _152
REMARK   56  A    between atoms: _152  and  _153
REMARK   57  A    between atoms: _152  and  _155
REMARK   58  A    between atoms: _155  and  _156
REMARK   59  A    between atoms: _156  and  _157
REMARK   60  A    between atoms: _163  and  _164
REMARK   61  A    between atoms: _169  and  _171
REMARK   62  A    between atoms: _171  and  _172
REMARK   63  A    between atoms: _171  and  _174
REMARK   64  A    between atoms: _174  and  _175
REMARK   65  A    between atoms: _178  and  _180
REMARK   66  A    between atoms: _180  and  _181
REMARK   67  A    between atoms: _180  and  _183
REMARK   68  A    between atoms: _183  and  _184
REMARK   69  A    between atoms: _189  and  _190
REMARK   70  A    between atoms: _192  and  _194
REMARK   71  A    between atoms: _194  and  _195
REMARK   72  A    between atoms: _194  and  _197
REMARK   73  A    between atoms: _197  and  _198
REMARK   74  A    between atoms: _201  and  _203
REMARK   75  A    between atoms: _203  and  _204
REMARK   76  A    between atoms: _203  and  _206
REMARK   77  A    between atoms: _206  and  _207
REMARK   78  A    between atoms: _212  and  _214
REMARK   79  A    between atoms: _214  and  _215
REMARK   80  A    between atoms: _218  and  _220
REMARK   81  A    between atoms: _220  and  _221
REMARK   82  A    between atoms: _220  and  _223
REMARK   83  A    between atoms: _223  and  _224
REMARK   84  A    between atoms: _227  and  _229
REMARK   85  A    between atoms: _229  and  _230
REMARK   86  A    between atoms: _229  and  _232
REMARK   87  A    between atoms: _232  and  _233
REMARK   88  A    between atoms: _236  and  _238
REMARK   89  A    between atoms: _238  and  _239
REMARK   90  A    between atoms: _238  and  _241
REMARK   91  A    between atoms: _241  and  _242
REMARK   92  A    between atoms: _245  and  _247
REMARK   93  A    between atoms: _247  and  _248
REMARK   94  A    between atoms: _247  and  _250
REMARK   95  A    between atoms: _250  and  _251
REMARK   96  A    between atoms: _251  and  _252
REMARK   97  A    between atoms: _257  and  _259
REMARK   98  A    between atoms: _259  and  _260
REMARK   99  A    between atoms: _259  and  _262
REMARK  100  A    between atoms: _262  and  _263
REMARK  101  A    between atoms: _263  and  _264
REMARK  102  A    between atoms: _264  and  _265
REMARK  103  A    between atoms: _274  and  _276
REMARK  104  A    between atoms: _276  and  _277
REMARK  105  A    between atoms: _276  and  _279
REMARK  106  A    between atoms: _279  and  _280
REMARK  107  A    between atoms: _280  and  _281
REMARK  108  A    between atoms: _284  and  _286
REMARK  109  A    between atoms: _286  and  _287
REMARK  110  A    between atoms: _286  and  _289
REMARK  111  A    between atoms: _289  and  _290
REMARK  112  A    between atoms: _293  and  _295
REMARK  113  A    between atoms: _295  and  _296
REMARK  114  A    between atoms: _295  and  _298
REMARK  115  A    between atoms: _298  and  _299
REMARK  116  A    between atoms: _299  and  _300
REMARK  117  A    between atoms: _300  and  _301
REMARK  118  A    between atoms: _310  and  _312
REMARK  119  A    between atoms: _312  and  _313
REMARK  120  A    between atoms: _312  and  _315
REMARK  121  A    between atoms: _315  and  _316
REMARK  122  A    between atoms: _316  and  _317
REMARK  123  A    between atoms: _317  and  _318
REMARK  124  A    between atoms: _318  and  _319
REMARK  125  A    between atoms: _323  and  _325
REMARK  126  A    between atoms: _325  and  _326
REMARK  127  A    between atoms: _329  and  _331
REMARK  128  A    between atoms: _331  and  _332
REMARK  129  A    between atoms: _331  and  _334
REMARK  130  A    between atoms: _334  and  _335
REMARK  131  A    between atoms: _335  and  _336
REMARK  132  A    between atoms: _339  and  _341
REMARK  133  A    between atoms: _341  and  _342
REMARK  134  A    between atoms: _341  and  _344
REMARK  135  A    between atoms: _344  and  _345
REMARK  136  A    between atoms: _345  and  _346
REMARK  137  A    between atoms: _346  and  _347
REMARK  138  A    between atoms: _356  and  _358
REMARK  139  A    between atoms: _358  and  _359
REMARK  140  A    between atoms: _358  and  _361
REMARK  141  A    between atoms: _361  and  _362
REMARK  142  A    between atoms: _372  and  _374
REMARK  143  A    between atoms: _374  and  _375
REMARK  144  A    between atoms: _378  and  _379
REMARK  145  A    between atoms: _384  and  _386
REMARK  146  A    between atoms: _386  and  _387
REMARK  147  A    between atoms: _386  and  _389
REMARK  148  A    between atoms: _389  and  _390
REMARK  149  A    between atoms: _390  and  _391
REMARK  150  A    between atoms: _391  and  _392
REMARK  151  A    between atoms: _401  and  _403
REMARK  152  A    between atoms: _403  and  _404
REMARK  153  A    between atoms: _403  and  _406
REMARK  154  A    between atoms: _406  and  _407
REMARK  155  A    between atoms: _410  and  _412
REMARK  156  A    between atoms: _412  and  _413
REMARK  157  A    between atoms: _412  and  _415
REMARK  158  A    between atoms: _415  and  _416
REMARK  159  A    between atoms: _419  and  _421
REMARK  160  A    between atoms: _421  and  _422
REMARK  161  A    between atoms: _421  and  _424
REMARK  162  A    between atoms: _424  and  _425
REMARK  163  A    between atoms: _428  and  _430
REMARK  164  A    between atoms: _430  and  _431
REMARK  165  A    between atoms: _430  and  _433
REMARK  166  A    between atoms: _433  and  _434
REMARK  167  A    between atoms: _437  and  _439
REMARK  168  A    between atoms: _439  and  _440
REMARK  169  A    between atoms: _439  and  _442
REMARK  170  A    between atoms: _442  and  _443
REMARK  171  A    between atoms: _446  and  _448
REMARK  172  A    between atoms: _448  and  _449
REMARK  173  A    between atoms: _448  and  _451
REMARK  174  A    between atoms: _451  and  _452
REMARK  175  A    between atoms: _452  and  _453
REMARK  176  A    between atoms: _455  and  _457
REMARK  177  A    between atoms: _457  and  _458
REMARK  178  A    between atoms: _457  and  _460
REMARK  179  A    between atoms: _460  and  _461
REMARK  180  A    between atoms: _464  and  _466
REMARK  181  A    between atoms: _466  and  _467
REMARK  182  A    between atoms: _466  and  _469
REMARK  183  A    between atoms: _469  and  _470
REMARK  184  A    between atoms: _476  and  _478
REMARK  185  A    between atoms: _478  and  _479
REMARK  186  A    between atoms: _478  and  _481
REMARK  187  A    between atoms: _481  and  _482
REMARK  188  A    between atoms: _485  and  _487
REMARK  189  A    between atoms: _487  and  _488
REMARK  190  A    between atoms: _487  and  _490
REMARK  191  A    between atoms: _490  and  _491
REMARK  192  A    between atoms: _494  and  _496
REMARK  193  A    between atoms: _496  and  _497
REMARK  194  A    between atoms: _496  and  _499
REMARK  195  A    between atoms: _499  and  _500
REMARK  196  A    between atoms: _500  and  _501
REMARK  197  A    between atoms: _504  and  _506
REMARK  198  A    between atoms: _506  and  _507
REMARK  199  A    between atoms: _506  and  _509
REMARK  200  A    between atoms: _509  and  _510
REMARK  201  A    between atoms: _510  and  _511
REMARK  202  A    between atoms: _511  and  _512
REMARK  203  A    between atoms: _521  and  _523
REMARK  204  A    between atoms: _523  and  _524
REMARK  205  A    between atoms: _523  and  _526
REMARK  206  A    between atoms: _526  and  _527
REMARK  207  A    between atoms: _530  and  _532
REMARK  208  A    between atoms: _532  and  _533
REMARK  209  A    between atoms: _532  and  _535
REMARK  210  A    between atoms: _535  and  _536
REMARK  211  A    between atoms: _539  and  _541
REMARK  212  A    between atoms: _541  and  _542
REMARK  213  A    between atoms: _541  and  _544
REMARK  214  A    between atoms: _548  and  _549
REMARK  215  A    between atoms: _554  and  _556
REMARK  216  A    between atoms: _556  and  _557
REMARK  217  A    between atoms: _556  and  _559
REMARK  218  A    between atoms: _559  and  _560
REMARK  219  A    between atoms: _565  and  _567
REMARK  220  A    between atoms: _567  and  _568
REMARK  221  A    between atoms: _567  and  _570
REMARK  222  A    between atoms: _570  and  _571
REMARK  223  A    between atoms: _576  and  _577
REMARK  224  A    between atoms: _579  and  _581
REMARK  225  A    between atoms: _581  and  _582
REMARK  226  A    between atoms: _581  and  _584
REMARK  227  A    between atoms: _584  and  _585
REMARK  228  A    between atoms: _588  and  _590
REMARK  229  A    between atoms: _590  and  _591
REMARK  230  A    between atoms: _590  and  _593
REMARK  231  A    between atoms: _593  and  _594
REMARK  232  A    between atoms: _594  and  _595
REMARK  233  A    between atoms: _595  and  _596
REMARK  234  A    between atoms: _605  and  _607
REMARK  235  A    between atoms: _607  and  _608
REMARK  236  A    between atoms: _610  and  _612
REMARK  237  A    between atoms: _612  and  _613
REMARK  238  A    between atoms: _612  and  _615
REMARK  239  A    between atoms: _615  and  _616
REMARK  240  A    between atoms: _622  and  _624
REMARK  241  A    between atoms: _624  and  _625
REMARK  242  A    between atoms: _624  and  _627
REMARK  243  A    between atoms: _627  and  _628
REMARK  244  A    between atoms: _628  and  _629
REMARK  245  A    between atoms: _631  and  _633
REMARK  246  A    between atoms: _633  and  _634
REMARK  247  A    between atoms: _633  and  _636
REMARK  248  A    between atoms: _636  and  _637
REMARK                            x       y       z     vdW  Elec       q    Type
REMARK                         _______ _______ _______ _____ _____    ______ ____
ROOT
ATOM      1  O   HOH     1       3.831  21.389  16.026  0.00  0.00    +0.000 OA
ENDROOT
TORSDOF 0
REMARK  Name = ../refined-set-2016/4f7v/4f7v_pocket.pdb
REMARK  248 active torsions:
REMARK  status: ('A' for Active; 'I' for Inactive)
REMARK    1  A    between atoms: _1  and  _3
REMARK    2  A    between atoms: _3  and  _4
REMARK    3  A    between atoms: _3  and  _6
REMARK    4  A    between atoms: _6  and  _7
REMARK    5  A    between atoms: _12  and  _13
REMARK    6  A    between atoms: _15  and  _17
REMARK    7  A    between atoms: _17  and  _18
REMARK    8  A    between atoms: _17  and  _20
REMARK    9  A    between atoms: _20  and  _21
REMARK   10  A    between atoms: _24  and  _26
REMARK   11  A    between atoms: _26  and  _27
REMARK   12  A    between atoms: _30  and  _32
REMARK   13  A    between atoms: _32  and  _33
REMARK   14  A    between atoms: _32  and  _35
REMARK   15  A    between atoms: _35  and  _36
REMARK   16  A    between atoms: _39  and  _41
REMARK   17  A    between atoms: _41  and  _42
REMARK   18  A    between atoms: _44  and  _46
REMARK   19  A    between atoms: _46  and  _47
REMARK   20  A    between atoms: _46  and  _49
REMARK   21  A    between atoms: _49  and  _50
REMARK   22  A    between atoms: _52  and  _54
REMARK   23  A    between atoms: _54  and  _55
REMARK   24  A    between atoms: _54  and  _57
REMARK   25  A    between atoms: _57  and  _58
REMARK   26  A    between atoms: _63  and  _65
REMARK   27  A    between atoms: _65  and  _66
REMARK   28  A    between atoms: _65  and  _68
REMARK   29  A    between atoms: _68  and  _69
REMARK   30  A    between atoms: _74  and  _75
REMARK   31  A    between atoms: _77  and  _79
REMARK   32  A    between atoms: _79  and  _80
REMARK   33  A    between atoms: _79  and  _82
REMARK   34  A    between atoms: _82  and  _83
REMARK   35  A    between atoms: _83  and  _84
REMARK   36  A    between atoms: _84  and  _85
REMARK   37  A    between atoms: _94  and  _96
REMARK   38  A    between atoms: _96  and  _97
REMARK   39  A    between atoms: _96  and  _99
REMARK   40  A    between atoms: _99  and  _100
REMARK   41  A    between atoms: _104  and  _105
REMARK   42  A    between atoms: _111  and  _112
REMARK   43  A    between atoms: _117  and  _119
REMARK   44  A    between atoms: _119  and  _120
REMARK   45  A    between atoms: _119  and  _122
REMARK   46  A    between atoms: _122  and  _123
REMARK   47  A    between atoms: _126  and  _128
REMARK   48  A    between atoms: _128  and  _129
REMARK   49  A    between atoms: _132  and  _133
REMARK   50  A    between atoms: _138  and  _140
REMARK   51  A    between atoms: _140  and  _141
REMARK   52  A    between atoms: _140  and  _143
REMARK   53  A    between atoms: _143  and  _144
REMARK   54  A    between atoms: _144  and  _145
REMARK   55  A    between atoms: _150  and  _152
REMARK   56  A    between atoms: _152  and  _153
REMARK   57  A    between atoms: _152  and  _155
REMARK   58  A    between atoms: _155  and  _156
REMARK   59  A    between atoms: _156  and  _157
REMARK   60  A    between atoms: _163  and  _164
REMARK   61  A    between atoms: _169  and  _171
REMARK   62  A    between atoms: _171  and  _172
REMARK   63  A    between atoms: _171  and  _174
REMARK   64  A    between atoms: _174  and  _175
REMARK   65  A    between atoms: _178  and  _180
REMARK   66  A    between atoms: _180  and  _181
REMARK   67  A    between atoms: _180  and  _183
REMARK   68  A    between atoms: _183  and  _184
REMARK   69  A    between atoms: _189  and  _190
REMARK   70  A    between atoms: _192  and  _194
REMARK   71  A    between atoms: _194  and  _195
REMARK   72  A    between atoms: _194  and  _197
REMARK   73  A    between atoms: _197  and  _198
REMARK   74  A    between atoms: _201  and  _203
REMARK   75  A    between atoms: _203  and  _204
REMARK   76  A    between atoms: _203  and  _206
REMARK   77  A    between atoms: _206  and  _207
REMARK   78  A    between atoms: _212  and  _214
REMARK   79  A    between atoms: _214  and  _215
REMARK   80  A    between atoms: _218  and  _220
REMARK   81  A    between atoms: _220  and  _221
REMARK   82  A    between atoms: _220  and  _223
REMARK   83  A    between atoms: _223  and  _224
REMARK   84  A    between atoms: _227  and  _229
REMARK   85  A    between atoms: _229  and  _230
REMARK   86  A    between atoms: _229  and  _232
REMARK   87  A    between atoms: _232  and  _233
REMARK   88  A    between atoms: _236  and  _238
REMARK   89  A    between atoms: _238  and  _239
REMARK   90  A    between atoms: _238  and  _241
REMARK   91  A    between atoms: _241  and  _242
REMARK   92  A    between atoms: _245  and  _247
REMARK   93  A    between atoms: _247  and  _248
REMARK   94  A    between atoms: _247  and  _250
REMARK   95  A    between atoms: _250  and  _251
REMARK   96  A    between atoms: _251  and  _252
REMARK   97  A    between atoms: _257  and  _259
REMARK   98  A    between atoms: _259  and  _260
REMARK   99  A    between atoms: _259  and  _262
REMARK  100  A    between atoms: _262  and  _263
REMARK  101  A    between atoms: _263  and  _264
REMARK  102  A    between atoms: _264  and  _265
REMARK  103  A    between atoms: _274  and  _276
REMARK  104  A    between atoms: _276  and  _277
REMARK  105  A    between atoms: _276  and  _279
REMARK  106  A    between atoms: _279  and  _280
REMARK  107  A    between atoms: _280  and  _281
REMARK  108  A    between atoms: _284  and  _286
REMARK  109  A    between atoms: _286  and  _287
REMARK  110  A    between atoms: _286  and  _289
REMARK  111  A    between atoms: _289  and  _290
REMARK  112  A    between atoms: _293  and  _295
REMARK  113  A    between atoms: _295  and  _296
REMARK  114  A    between atoms: _295  and  _298
REMARK  115  A    between atoms: _298  and  _299
REMARK  116  A    between atoms: _299  and  _300
REMARK  117  A    between atoms: _300  and  _301
REMARK  118  A    between atoms: _310  and  _312
REMARK  119  A    between atoms: _312  and  _313
REMARK  120  A    between atoms: _312  and  _315
REMARK  121  A    between atoms: _315  and  _316
REMARK  122  A    between atoms: _316  and  _317
REMARK  123  A    between atoms: _317  and  _318
REMARK  124  A    between atoms: _318  and  _319
REMARK  125  A    between atoms: _323  and  _325
REMARK  126  A    between atoms: _325  and  _326
REMARK  127  A    between atoms: _329  and  _331
REMARK  128  A    between atoms: _331  and  _332
REMARK  129  A    between atoms: _331  and  _334
REMARK  130  A    between atoms: _334  and  _335
REMARK  131  A    between atoms: _335  and  _336
REMARK  132  A    between atoms: _339  and  _341
REMARK  133  A    between atoms: _341  and  _342
REMARK  134  A    between atoms: _341  and  _344
REMARK  135  A    between atoms: _344  and  _345
REMARK  136  A    between atoms: _345  and  _346
REMARK  137  A    between atoms: _346  and  _347
REMARK  138  A    between atoms: _356  and  _358
REMARK  139  A    between atoms: _358  and  _359
REMARK  140  A    between atoms: _358  and  _361
REMARK  141  A    between atoms: _361  and  _362
REMARK  142  A    between atoms: _372  and  _374
REMARK  143  A    between atoms: _374  and  _375
REMARK  144  A    between atoms: _378  and  _379
REMARK  145  A    between atoms: _384  and  _386
REMARK  146  A    between atoms: _386  and  _387
REMARK  147  A    between atoms: _386  and  _389
REMARK  148  A    between atoms: _389  and  _390
REMARK  149  A    between atoms: _390  and  _391
REMARK  150  A    between atoms: _391  and  _392
REMARK  151  A    between atoms: _401  and  _403
REMARK  152  A    between atoms: _403  and  _404
REMARK  153  A    between atoms: _403  and  _406
REMARK  154  A    between atoms: _406  and  _407
REMARK  155  A    between atoms: _410  and  _412
REMARK  156  A    between atoms: _412  and  _413
REMARK  157  A    between atoms: _412  and  _415
REMARK  158  A    between atoms: _415  and  _416
REMARK  159  A    between atoms: _419  and  _421
REMARK  160  A    between atoms: _421  and  _422
REMARK  161  A    between atoms: _421  and  _424
REMARK  162  A    between atoms: _424  and  _425
REMARK  163  A    between atoms: _428  and  _430
REMARK  164  A    between atoms: _430  and  _431
REMARK  165  A    between atoms: _430  and  _433
REMARK  166  A    between atoms: _433  and  _434
REMARK  167  A    between atoms: _437  and  _439
REMARK  168  A    between atoms: _439  and  _440
REMARK  169  A    between atoms: _439  and  _442
REMARK  170  A    between atoms: _442  and  _443
REMARK  171  A    between atoms: _446  and  _448
REMARK  172  A    between atoms: _448  and  _449
REMARK  173  A    between atoms: _448  and  _451
REMARK  174  A    between atoms: _451  and  _452
REMARK  175  A    between atoms: _452  and  _453
REMARK  176  A    between atoms: _455  and  _457
REMARK  177  A    between atoms: _457  and  _458
REMARK  178  A    between atoms: _457  and  _460
REMARK  179  A    between atoms: _460  and  _461
REMARK  180  A    between atoms: _464  and  _466
REMARK  181  A    between atoms: _466  and  _467
REMARK  182  A    between atoms: _466  and  _469
REMARK  183  A    between atoms: _469  and  _470
REMARK  184  A    between atoms: _476  and  _478
REMARK  185  A    between atoms: _478  and  _479
REMARK  186  A    between atoms: _478  and  _481
REMARK  187  A    between atoms: _481  and  _482
REMARK  188  A    between atoms: _485  and  _487
REMARK  189  A    between atoms: _487  and  _488
REMARK  190  A    between atoms: _487  and  _490
REMARK  191  A    between atoms: _490  and  _491
REMARK  192  A    between atoms: _494  and  _496
REMARK  193  A    between atoms: _496  and  _497
REMARK  194  A    between atoms: _496  and  _499
REMARK  195  A    between atoms: _499  and  _500
REMARK  196  A    between atoms: _500  and  _501
REMARK  197  A    between atoms: _504  and  _506
REMARK  198  A    between atoms: _506  and  _507
REMARK  199  A    between atoms: _506  and  _509
REMARK  200  A    between atoms: _509  and  _510
REMARK  201  A    between atoms: _510  and  _511
REMARK  202  A    between atoms: _511  and  _512
REMARK  203  A    between atoms: _521  and  _523
REMARK  204  A    between atoms: _523  and  _524
REMARK  205  A    between atoms: _523  and  _526
REMARK  206  A    between atoms: _526  and  _527
REMARK  207  A    between atoms: _530  and  _532
REMARK  208  A    between atoms: _532  and  _533
REMARK  209  A    between atoms: _532  and  _535
REMARK  210  A    between atoms: _535  and  _536
REMARK  211  A    between atoms: _539  and  _541
REMARK  212  A    between atoms: _541  and  _542
REMARK  213  A    between atoms: _541  and  _544
REMARK  214  A    between atoms: _548  and  _549
REMARK  215  A    between atoms: _554  and  _556
REMARK  216  A    between atoms: _556  and  _557
REMARK  217  A    between atoms: _556  and  _559
REMARK  218  A    between atoms: _559  and  _560
REMARK  219  A    between atoms: _565  and  _567
REMARK  220  A    between atoms: _567  and  _568
REMARK  221  A    between atoms: _567  and  _570
REMARK  222  A    between atoms: _570  and  _571
REMARK  223  A    between atoms: _576  and  _577
REMARK  224  A    between atoms: _579  and  _581
REMARK  225  A    between atoms: _581  and  _582
REMARK  226  A    between atoms: _581  and  _584
REMARK  227  A    between atoms: _584  and  _585
REMARK  228  A    between atoms: _588  and  _590
REMARK  229  A    between atoms: _590  and  _591
REMARK  230  A    between atoms: _590  and  _593
REMARK  231  A    between atoms: _593  and  _594
REMARK  232  A    between atoms: _594  and  _595
REMARK  233  A    between atoms: _595  and  _596
REMARK  234  A    between atoms: _605  and  _607
REMARK  235  A    between atoms: _607  and  _608
REMARK  236  A    between atoms: _610  and  _612
REMARK  237  A    between atoms: _612  and  _613
REMARK  238  A    between atoms: _612  and  _615
REMARK  239  A    between atoms: _615  and  _616
REMARK  240  A    between atoms: _622  and  _624
REMARK  241  A    between atoms: _624  and  _625
REMARK  242  A    between atoms: _624  and  _627
REMARK  243  A    between atoms: _627  and  _628
REMARK  244  A    between atoms: _628  and  _629
REMARK  245  A    between atoms: _631  and  _633
REMARK  246  A    between atoms: _633  and  _634
REMARK  247  A    between atoms: _633  and  _636
REMARK  248  A    between atoms: _636  and  _637
REMARK                            x       y       z     vdW  Elec       q    Type
REMARK                         _______ _______ _______ _____ _____    ______ ____
ROOT
ATOM      1  O   HOH     1       3.054  12.658  19.332  0.00  0.00    +0.000 OA
ENDROOT
TORSDOF 0
REMARK  Name = ../refined-set-2016/4f7v/4f7v_pocket.pdb
REMARK  248 active torsions:
REMARK  status: ('A' for Active; 'I' for Inactive)
REMARK    1  A    between atoms: _1  and  _3
REMARK    2  A    between atoms: _3  and  _4
REMARK    3  A    between atoms: _3  and  _6
REMARK    4  A    between atoms: _6  and  _7
REMARK    5  A    between atoms: _12  and  _13
REMARK    6  A    between atoms: _15  and  _17
REMARK    7  A    between atoms: _17  and  _18
REMARK    8  A    between atoms: _17  and  _20
REMARK    9  A    between atoms: _20  and  _21
REMARK   10  A    between atoms: _24  and  _26
REMARK   11  A    between atoms: _26  and  _27
REMARK   12  A    between atoms: _30  and  _32
REMARK   13  A    between atoms: _32  and  _33
REMARK   14  A    between atoms: _32  and  _35
REMARK   15  A    between atoms: _35  and  _36
REMARK   16  A    between atoms: _39  and  _41
REMARK   17  A    between atoms: _41  and  _42
REMARK   18  A    between atoms: _44  and  _46
REMARK   19  A    between atoms: _46  and  _47
REMARK   20  A    between atoms: _46  and  _49
REMARK   21  A    between atoms: _49  and  _50
REMARK   22  A    between atoms: _52  and  _54
REMARK   23  A    between atoms: _54  and  _55
REMARK   24  A    between atoms: _54  and  _57
REMARK   25  A    between atoms: _57  and  _58
REMARK   26  A    between atoms: _63  and  _65
REMARK   27  A    between atoms: _65  and  _66
REMARK   28  A    between atoms: _65  and  _68
REMARK   29  A    between atoms: _68  and  _69
REMARK   30  A    between atoms: _74  and  _75
REMARK   31  A    between atoms: _77  and  _79
REMARK   32  A    between atoms: _79  and  _80
REMARK   33  A    between atoms: _79  and  _82
REMARK   34  A    between atoms: _82  and  _83
REMARK   35  A    between atoms: _83  and  _84
REMARK   36  A    between atoms: _84  and  _85
REMARK   37  A    between atoms: _94  and  _96
REMARK   38  A    between atoms: _96  and  _97
REMARK   39  A    between atoms: _96  and  _99
REMARK   40  A    between atoms: _99  and  _100
REMARK   41  A    between atoms: _104  and  _105
REMARK   42  A    between atoms: _111  and  _112
REMARK   43  A    between atoms: _117  and  _119
REMARK   44  A    between atoms: _119  and  _120
REMARK   45  A    between atoms: _119  and  _122
REMARK   46  A    between atoms: _122  and  _123
REMARK   47  A    between atoms: _126  and  _128
REMARK   48  A    between atoms: _128  and  _129
REMARK   49  A    between atoms: _132  and  _133
REMARK   50  A    between atoms: _138  and  _140
REMARK   51  A    between atoms: _140  and  _141
REMARK   52  A    between atoms: _140  and  _143
REMARK   53  A    between atoms: _143  and  _144
REMARK   54  A    between atoms: _144  and  _145
REMARK   55  A    between atoms: _150  and  _152
REMARK   56  A    between atoms: _152  and  _153
REMARK   57  A    between atoms: _152  and  _155
REMARK   58  A    between atoms: _155  and  _156
REMARK   59  A    between atoms: _156  and  _157
REMARK   60  A    between atoms: _163  and  _164
REMARK   61  A    between atoms: _169  and  _171
REMARK   62  A    between atoms: _171  and  _172
REMARK   63  A    between atoms: _171  and  _174
REMARK   64  A    between atoms: _174  and  _175
REMARK   65  A    between atoms: _178  and  _180
REMARK   66  A    between atoms: _180  and  _181
REMARK   67  A    between atoms: _180  and  _183
REMARK   68  A    between atoms: _183  and  _184
REMARK   69  A    between atoms: _189  and  _190
REMARK   70  A    between atoms: _192  and  _194
REMARK   71  A    between atoms: _194  and  _195
REMARK   72  A    between atoms: _194  and  _197
REMARK   73  A    between atoms: _197  and  _198
REMARK   74  A    between atoms: _201  and  _203
REMARK   75  A    between atoms: _203  and  _204
REMARK   76  A    between atoms: _203  and  _206
REMARK   77  A    between atoms: _206  and  _207
REMARK   78  A    between atoms: _212  and  _214
REMARK   79  A    between atoms: _214  and  _215
REMARK   80  A    between atoms: _218  and  _220
REMARK   81  A    between atoms: _220  and  _221
REMARK   82  A    between atoms: _220  and  _223
REMARK   83  A    between atoms: _223  and  _224
REMARK   84  A    between atoms: _227  and  _229
REMARK   85  A    between atoms: _229  and  _230
REMARK   86  A    between atoms: _229  and  _232
REMARK   87  A    between atoms: _232  and  _233
REMARK   88  A    between atoms: _236  and  _238
REMARK   89  A    between atoms: _238  and  _239
REMARK   90  A    between atoms: _238  and  _241
REMARK   91  A    between atoms: _241  and  _242
REMARK   92  A    between atoms: _245  and  _247
REMARK   93  A    between atoms: _247  and  _248
REMARK   94  A    between atoms: _247  and  _250
REMARK   95  A    between atoms: _250  and  _251
REMARK   96  A    between atoms: _251  and  _252
REMARK   97  A    between atoms: _257  and  _259
REMARK   98  A    between atoms: _259  and  _260
REMARK   99  A    between atoms: _259  and  _262
REMARK  100  A    between atoms: _262  and  _263
REMARK  101  A    between atoms: _263  and  _264
REMARK  102  A    between atoms: _264  and  _265
REMARK  103  A    between atoms: _274  and  _276
REMARK  104  A    between atoms: _276  and  _277
REMARK  105  A    between atoms: _276  and  _279
REMARK  106  A    between atoms: _279  and  _280
REMARK  107  A    between atoms: _280  and  _281
REMARK  108  A    between atoms: _284  and  _286
REMARK  109  A    between atoms: _286  and  _287
REMARK  110  A    between atoms: _286  and  _289
REMARK  111  A    between atoms: _289  and  _290
REMARK  112  A    between atoms: _293  and  _295
REMARK  113  A    between atoms: _295  and  _296
REMARK  114  A    between atoms: _295  and  _298
REMARK  115  A    between atoms: _298  and  _299
REMARK  116  A    between atoms: _299  and  _300
REMARK  117  A    between atoms: _300  and  _301
REMARK  118  A    between atoms: _310  and  _312
REMARK  119  A    between atoms: _312  and  _313
REMARK  120  A    between atoms: _312  and  _315
REMARK  121  A    between atoms: _315  and  _316
REMARK  122  A    between atoms: _316  and  _317
REMARK  123  A    between atoms: _317  and  _318
REMARK  124  A    between atoms: _318  and  _319
REMARK  125  A    between atoms: _323  and  _325
REMARK  126  A    between atoms: _325  and  _326
REMARK  127  A    between atoms: _329  and  _331
REMARK  128  A    between atoms: _331  and  _332
REMARK  129  A    between atoms: _331  and  _334
REMARK  130  A    between atoms: _334  and  _335
REMARK  131  A    between atoms: _335  and  _336
REMARK  132  A    between atoms: _339  and  _341
REMARK  133  A    between atoms: _341  and  _342
REMARK  134  A    between atoms: _341  and  _344
REMARK  135  A    between atoms: _344  and  _345
REMARK  136  A    between atoms: _345  and  _346
REMARK  137  A    between atoms: _346  and  _347
REMARK  138  A    between atoms: _356  and  _358
REMARK  139  A    between atoms: _358  and  _359
REMARK  140  A    between atoms: _358  and  _361
REMARK  141  A    between atoms: _361  and  _362
REMARK  142  A    between atoms: _372  and  _374
REMARK  143  A    between atoms: _374  and  _375
REMARK  144  A    between atoms: _378  and  _379
REMARK  145  A    between atoms: _384  and  _386
REMARK  146  A    between atoms: _386  and  _387
REMARK  147  A    between atoms: _386  and  _389
REMARK  148  A    between atoms: _389  and  _390
REMARK  149  A    between atoms: _390  and  _391
REMARK  150  A    between atoms: _391  and  _392
REMARK  151  A    between atoms: _401  and  _403
REMARK  152  A    between atoms: _403  and  _404
REMARK  153  A    between atoms: _403  and  _406
REMARK  154  A    between atoms: _406  and  _407
REMARK  155  A    between atoms: _410  and  _412
REMARK  156  A    between atoms: _412  and  _413
REMARK  157  A    between atoms: _412  and  _415
REMARK  158  A    between atoms: _415  and  _416
REMARK  159  A    between atoms: _419  and  _421
REMARK  160  A    between atoms: _421  and  _422
REMARK  161  A    between atoms: _421  and  _424
REMARK  162  A    between atoms: _424  and  _425
REMARK  163  A    between atoms: _428  and  _430
REMARK  164  A    between atoms: _430  and  _431
REMARK  165  A    between atoms: _430  and  _433
REMARK  166  A    between atoms: _433  and  _434
REMARK  167  A    between atoms: _437  and  _439
REMARK  168  A    between atoms: _439  and  _440
REMARK  169  A    between atoms: _439  and  _442
REMARK  170  A    between atoms: _442  and  _443
REMARK  171  A    between atoms: _446  and  _448
REMARK  172  A    between atoms: _448  and  _449
REMARK  173  A    between atoms: _448  and  _451
REMARK  174  A    between atoms: _451  and  _452
REMARK  175  A    between atoms: _452  and  _453
REMARK  176  A    between atoms: _455  and  _457
REMARK  177  A    between atoms: _457  and  _458
REMARK  178  A    between atoms: _457  and  _460
REMARK  179  A    between atoms: _460  and  _461
REMARK  180  A    between atoms: _464  and  _466
REMARK  181  A    between atoms: _466  and  _467
REMARK  182  A    between atoms: _466  and  _469
REMARK  183  A    between atoms: _469  and  _470
REMARK  184  A    between atoms: _476  and  _478
REMARK  185  A    between atoms: _478  and  _479
REMARK  186  A    between atoms: _478  and  _481
REMARK  187  A    between atoms: _481  and  _482
REMARK  188  A    between atoms: _485  and  _487
REMARK  189  A    between atoms: _487  and  _488
REMARK  190  A    between atoms: _487  and  _490
REMARK  191  A    between atoms: _490  and  _491
REMARK  192  A    between atoms: _494  and  _496
REMARK  193  A    between atoms: _496  and  _497
REMARK  194  A    between atoms: _496  and  _499
REMARK  195  A    between atoms: _499  and  _500
REMARK  196  A    between atoms: _500  and  _501
REMARK  197  A    between atoms: _504  and  _506
REMARK  198  A    between atoms: _506  and  _507
REMARK  199  A    between atoms: _506  and  _509
REMARK  200  A    between atoms: _509  and  _510
REMARK  201  A    between atoms: _510  and  _511
REMARK  202  A    between atoms: _511  and  _512
REMARK  203  A    between atoms: _521  and  _523
REMARK  204  A    between atoms: _523  and  _524
REMARK  205  A    between atoms: _523  and  _526
REMARK  206  A    between atoms: _526  and  _527
REMARK  207  A    between atoms: _530  and  _532
REMARK  208  A    between atoms: _532  and  _533
REMARK  209  A    between atoms: _532  and  _535
REMARK  210  A    between atoms: _535  and  _536
REMARK  211  A    between atoms: _539  and  _541
REMARK  212  A    between atoms: _541  and  _542
REMARK  213  A    between atoms: _541  and  _544
REMARK  214  A    between atoms: _548  and  _549
REMARK  215  A    between atoms: _554  and  _556
REMARK  216  A    between atoms: _556  and  _557
REMARK  217  A    between atoms: _556  and  _559
REMARK  218  A    between atoms: _559  and  _560
REMARK  219  A    between atoms: _565  and  _567
REMARK  220  A    between atoms: _567  and  _568
REMARK  221  A    between atoms: _567  and  _570
REMARK  222  A    between atoms: _570  and  _571
REMARK  223  A    between atoms: _576  and  _577
REMARK  224  A    between atoms: _579  and  _581
REMARK  225  A    between atoms: _581  and  _582
REMARK  226  A    between atoms: _581  and  _584
REMARK  227  A    between atoms: _584  and  _585
REMARK  228  A    between atoms: _588  and  _590
REMARK  229  A    between atoms: _590  and  _591
REMARK  230  A    between atoms: _590  and  _593
REMARK  231  A    between atoms: _593  and  _594
REMARK  232  A    between atoms: _594  and  _595
REMARK  233  A    between atoms: _595  and  _596
REMARK  234  A    between atoms: _605  and  _607
REMARK  235  A    between atoms: _607  and  _608
REMARK  236  A    between atoms: _610  and  _612
REMARK  237  A    between atoms: _612  and  _613
REMARK  238  A    between atoms: _612  and  _615
REMARK  239  A    between atoms: _615  and  _616
REMARK  240  A    between atoms: _622  and  _624
REMARK  241  A    between atoms: _624  and  _625
REMARK  242  A    between atoms: _624  and  _627
REMARK  243  A    between atoms: _627  and  _628
REMARK  244  A    between atoms: _628  and  _629
REMARK  245  A    between atoms: _631  and  _633
REMARK  246  A    between atoms: _633  and  _634
REMARK  247  A    between atoms: _633  and  _636
REMARK  248  A    between atoms: _636  and  _637
REMARK                            x       y       z     vdW  Elec       q    Type
REMARK                         _______ _______ _______ _____ _____    ______ ____
ROOT
ATOM      1  O   HOH     1      -0.391  13.679  18.524  0.00  0.00    +0.000 OA
ENDROOT
TORSDOF 0
REMARK  Name = ../refined-set-2016/4f7v/4f7v_pocket.pdb
REMARK  248 active torsions:
REMARK  status: ('A' for Active; 'I' for Inactive)
REMARK    1  A    between atoms: _1  and  _3
REMARK    2  A    between atoms: _3  and  _4
REMARK    3  A    between atoms: _3  and  _6
REMARK    4  A    between atoms: _6  and  _7
REMARK    5  A    between atoms: _12  and  _13
REMARK    6  A    between atoms: _15  and  _17
REMARK    7  A    between atoms: _17  and  _18
REMARK    8  A    between atoms: _17  and  _20
REMARK    9  A    between atoms: _20  and  _21
REMARK   10  A    between atoms: _24  and  _26
REMARK   11  A    between atoms: _26  and  _27
REMARK   12  A    between atoms: _30  and  _32
REMARK   13  A    between atoms: _32  and  _33
REMARK   14  A    between atoms: _32  and  _35
REMARK   15  A    between atoms: _35  and  _36
REMARK   16  A    between atoms: _39  and  _41
REMARK   17  A    between atoms: _41  and  _42
REMARK   18  A    between atoms: _44  and  _46
REMARK   19  A    between atoms: _46  and  _47
REMARK   20  A    between atoms: _46  and  _49
REMARK   21  A    between atoms: _49  and  _50
REMARK   22  A    between atoms: _52  and  _54
REMARK   23  A    between atoms: _54  and  _55
REMARK   24  A    between atoms: _54  and  _57
REMARK   25  A    between atoms: _57  and  _58
REMARK   26  A    between atoms: _63  and  _65
REMARK   27  A    between atoms: _65  and  _66
REMARK   28  A    between atoms: _65  and  _68
REMARK   29  A    between atoms: _68  and  _69
REMARK   30  A    between atoms: _74  and  _75
REMARK   31  A    between atoms: _77  and  _79
REMARK   32  A    between atoms: _79  and  _80
REMARK   33  A    between atoms: _79  and  _82
REMARK   34  A    between atoms: _82  and  _83
REMARK   35  A    between atoms: _83  and  _84
REMARK   36  A    between atoms: _84  and  _85
REMARK   37  A    between atoms: _94  and  _96
REMARK   38  A    between atoms: _96  and  _97
REMARK   39  A    between atoms: _96  and  _99
REMARK   40  A    between atoms: _99  and  _100
REMARK   41  A    between atoms: _104  and  _105
REMARK   42  A    between atoms: _111  and  _112
REMARK   43  A    between atoms: _117  and  _119
REMARK   44  A    between atoms: _119  and  _120
REMARK   45  A    between atoms: _119  and  _122
REMARK   46  A    between atoms: _122  and  _123
REMARK   47  A    between atoms: _126  and  _128
REMARK   48  A    between atoms: _128  and  _129
REMARK   49  A    between atoms: _132  and  _133
REMARK   50  A    between atoms: _138  and  _140
REMARK   51  A    between atoms: _140  and  _141
REMARK   52  A    between atoms: _140  and  _143
REMARK   53  A    between atoms: _143  and  _144
REMARK   54  A    between atoms: _144  and  _145
REMARK   55  A    between atoms: _150  and  _152
REMARK   56  A    between atoms: _152  and  _153
REMARK   57  A    between atoms: _152  and  _155
REMARK   58  A    between atoms: _155  and  _156
REMARK   59  A    between atoms: _156  and  _157
REMARK   60  A    between atoms: _163  and  _164
REMARK   61  A    between atoms: _169  and  _171
REMARK   62  A    between atoms: _171  and  _172
REMARK   63  A    between atoms: _171  and  _174
REMARK   64  A    between atoms: _174  and  _175
REMARK   65  A    between atoms: _178  and  _180
REMARK   66  A    between atoms: _180  and  _181
REMARK   67  A    between atoms: _180  and  _183
REMARK   68  A    between atoms: _183  and  _184
REMARK   69  A    between atoms: _189  and  _190
REMARK   70  A    between atoms: _192  and  _194
REMARK   71  A    between atoms: _194  and  _195
REMARK   72  A    between atoms: _194  and  _197
REMARK   73  A    between atoms: _197  and  _198
REMARK   74  A    between atoms: _201  and  _203
REMARK   75  A    between atoms: _203  and  _204
REMARK   76  A    between atoms: _203  and  _206
REMARK   77  A    between atoms: _206  and  _207
REMARK   78  A    between atoms: _212  and  _214
REMARK   79  A    between atoms: _214  and  _215
REMARK   80  A    between atoms: _218  and  _220
REMARK   81  A    between atoms: _220  and  _221
REMARK   82  A    between atoms: _220  and  _223
REMARK   83  A    between atoms: _223  and  _224
REMARK   84  A    between atoms: _227  and  _229
REMARK   85  A    between atoms: _229  and  _230
REMARK   86  A    between atoms: _229  and  _232
REMARK   87  A    between atoms: _232  and  _233
REMARK   88  A    between atoms: _236  and  _238
REMARK   89  A    between atoms: _238  and  _239
REMARK   90  A    between atoms: _238  and  _241
REMARK   91  A    between atoms: _241  and  _242
REMARK   92  A    between atoms: _245  and  _247
REMARK   93  A    between atoms: _247  and  _248
REMARK   94  A    between atoms: _247  and  _250
REMARK   95  A    between atoms: _250  and  _251
REMARK   96  A    between atoms: _251  and  _252
REMARK   97  A    between atoms: _257  and  _259
REMARK   98  A    between atoms: _259  and  _260
REMARK   99  A    between atoms: _259  and  _262
REMARK  100  A    between atoms: _262  and  _263
REMARK  101  A    between atoms: _263  and  _264
REMARK  102  A    between atoms: _264  and  _265
REMARK  103  A    between atoms: _274  and  _276
REMARK  104  A    between atoms: _276  and  _277
REMARK  105  A    between atoms: _276  and  _279
REMARK  106  A    between atoms: _279  and  _280
REMARK  107  A    between atoms: _280  and  _281
REMARK  108  A    between atoms: _284  and  _286
REMARK  109  A    between atoms: _286  and  _287
REMARK  110  A    between atoms: _286  and  _289
REMARK  111  A    between atoms: _289  and  _290
REMARK  112  A    between atoms: _293  and  _295
REMARK  113  A    between atoms: _295  and  _296
REMARK  114  A    between atoms: _295  and  _298
REMARK  115  A    between atoms: _298  and  _299
REMARK  116  A    between atoms: _299  and  _300
REMARK  117  A    between atoms: _300  and  _301
REMARK  118  A    between atoms: _310  and  _312
REMARK  119  A    between atoms: _312  and  _313
REMARK  120  A    between atoms: _312  and  _315
REMARK  121  A    between atoms: _315  and  _316
REMARK  122  A    between atoms: _316  and  _317
REMARK  123  A    between atoms: _317  and  _318
REMARK  124  A    between atoms: _318  and  _319
REMARK  125  A    between atoms: _323  and  _325
REMARK  126  A    between atoms: _325  and  _326
REMARK  127  A    between atoms: _329  and  _331
REMARK  128  A    between atoms: _331  and  _332
REMARK  129  A    between atoms: _331  and  _334
REMARK  130  A    between atoms: _334  and  _335
REMARK  131  A    between atoms: _335  and  _336
REMARK  132  A    between atoms: _339  and  _341
REMARK  133  A    between atoms: _341  and  _342
REMARK  134  A    between atoms: _341  and  _344
REMARK  135  A    between atoms: _344  and  _345
REMARK  136  A    between atoms: _345  and  _346
REMARK  137  A    between atoms: _346  and  _347
REMARK  138  A    between atoms: _356  and  _358
REMARK  139  A    between atoms: _358  and  _359
REMARK  140  A    between atoms: _358  and  _361
REMARK  141  A    between atoms: _361  and  _362
REMARK  142  A    between atoms: _372  and  _374
REMARK  143  A    between atoms: _374  and  _375
REMARK  144  A    between atoms: _378  and  _379
REMARK  145  A    between atoms: _384  and  _386
REMARK  146  A    between atoms: _386  and  _387
REMARK  147  A    between atoms: _386  and  _389
REMARK  148  A    between atoms: _389  and  _390
REMARK  149  A    between atoms: _390  and  _391
REMARK  150  A    between atoms: _391  and  _392
REMARK  151  A    between atoms: _401  and  _403
REMARK  152  A    between atoms: _403  and  _404
REMARK  153  A    between atoms: _403  and  _406
REMARK  154  A    between atoms: _406  and  _407
REMARK  155  A    between atoms: _410  and  _412
REMARK  156  A    between atoms: _412  and  _413
REMARK  157  A    between atoms: _412  and  _415
REMARK  158  A    between atoms: _415  and  _416
REMARK  159  A    between atoms: _419  and  _421
REMARK  160  A    between atoms: _421  and  _422
REMARK  161  A    between atoms: _421  and  _424
REMARK  162  A    between atoms: _424  and  _425
REMARK  163  A    between atoms: _428  and  _430
REMARK  164  A    between atoms: _430  and  _431
REMARK  165  A    between atoms: _430  and  _433
REMARK  166  A    between atoms: _433  and  _434
REMARK  167  A    between atoms: _437  and  _439
REMARK  168  A    between atoms: _439  and  _440
REMARK  169  A    between atoms: _439  and  _442
REMARK  170  A    between atoms: _442  and  _443
REMARK  171  A    between atoms: _446  and  _448
REMARK  172  A    between atoms: _448  and  _449
REMARK  173  A    between atoms: _448  and  _451
REMARK  174  A    between atoms: _451  and  _452
REMARK  175  A    between atoms: _452  and  _453
REMARK  176  A    between atoms: _455  and  _457
REMARK  177  A    between atoms: _457  and  _458
REMARK  178  A    between atoms: _457  and  _460
REMARK  179  A    between atoms: _460  and  _461
REMARK  180  A    between atoms: _464  and  _466
REMARK  181  A    between atoms: _466  and  _467
REMARK  182  A    between atoms: _466  and  _469
REMARK  183  A    between atoms: _469  and  _470
REMARK  184  A    between atoms: _476  and  _478
REMARK  185  A    between atoms: _478  and  _479
REMARK  186  A    between atoms: _478  and  _481
REMARK  187  A    between atoms: _481  and  _482
REMARK  188  A    between atoms: _485  and  _487
REMARK  189  A    between atoms: _487  and  _488
REMARK  190  A    between atoms: _487  and  _490
REMARK  191  A    between atoms: _490  and  _491
REMARK  192  A    between atoms: _494  and  _496
REMARK  193  A    between atoms: _496  and  _497
REMARK  194  A    between atoms: _496  and  _499
REMARK  195  A    between atoms: _499  and  _500
REMARK  196  A    between atoms: _500  and  _501
REMARK  197  A    between atoms: _504  and  _506
REMARK  198  A    between atoms: _506  and  _507
REMARK  199  A    between atoms: _506  and  _509
REMARK  200  A    between atoms: _509  and  _510
REMARK  201  A    between atoms: _510  and  _511
REMARK  202  A    between atoms: _511  and  _512
REMARK  203  A    between atoms: _521  and  _523
REMARK  204  A    between atoms: _523  and  _524
REMARK  205  A    between atoms: _523  and  _526
REMARK  206  A    between atoms: _526  and  _527
REMARK  207  A    between atoms: _530  and  _532
REMARK  208  A    between atoms: _532  and  _533
REMARK  209  A    between atoms: _532  and  _535
REMARK  210  A    between atoms: _535  and  _536
REMARK  211  A    between atoms: _539  and  _541
REMARK  212  A    between atoms: _541  and  _542
REMARK  213  A    between atoms: _541  and  _544
REMARK  214  A    between atoms: _548  and  _549
REMARK  215  A    between atoms: _554  and  _556
REMARK  216  A    between atoms: _556  and  _557
REMARK  217  A    between atoms: _556  and  _559
REMARK  218  A    between atoms: _559  and  _560
REMARK  219  A    between atoms: _565  and  _567
REMARK  220  A    between atoms: _567  and  _568
REMARK  221  A    between atoms: _567  and  _570
REMARK  222  A    between atoms: _570  and  _571
REMARK  223  A    between atoms: _576  and  _577
REMARK  224  A    between atoms: _579  and  _581
REMARK  225  A    between atoms: _581  and  _582
REMARK  226  A    between atoms: _581  and  _584
REMARK  227  A    between atoms: _584  and  _585
REMARK  228  A    between atoms: _588  and  _590
REMARK  229  A    between atoms: _590  and  _591
REMARK  230  A    between atoms: _590  and  _593
REMARK  231  A    between atoms: _593  and  _594
REMARK  232  A    between atoms: _594  and  _595
REMARK  233  A    between atoms: _595  and  _596
REMARK  234  A    between atoms: _605  and  _607
REMARK  235  A    between atoms: _607  and  _608
REMARK  236  A    between atoms: _610  and  _612
REMARK  237  A    between atoms: _612  and  _613
REMARK  238  A    between atoms: _612  and  _615
REMARK  239  A    between atoms: _615  and  _616
REMARK  240  A    between atoms: _622  and  _624
REMARK  241  A    between atoms: _624  and  _625
REMARK  242  A    between atoms: _624  and  _627
REMARK  243  A    between atoms: _627  and  _628
REMARK  244  A    between atoms: _628  and  _629
REMARK  245  A    between atoms: _631  and  _633
REMARK  246  A    between atoms: _633  and  _634
REMARK  247  A    between atoms: _633  and  _636
REMARK  248  A    between atoms: _636  and  _637
REMARK                            x       y       z     vdW  Elec       q    Type
REMARK                         _______ _______ _______ _____ _____    ______ ____
ROOT
ATOM      1  O   HOH     1      -2.547  15.621  10.993  0.00  0.00    +0.000 OA
ENDROOT
TORSDOF 0
