REMARK  Name = ../refined-set-2016/3pgl/3pgl_pocket.pdb
REMARK  134 active torsions:
REMARK  status: ('A' for Active; 'I' for Inactive)
REMARK    1  A    between atoms: _1  and  _3
REMARK    2  A    between atoms: _3  and  _4
REMARK    3  A    between atoms: _3  and  _6
REMARK    4  A    between atoms: _6  and  _7
REMARK    5  A    between atoms: _10  and  _12
REMARK    6  A    between atoms: _12  and  _13
REMARK    7  A    between atoms: _12  and  _15
REMARK    8  A    between atoms: _15  and  _16
REMARK    9  A    between atoms: _19  and  _21
REMARK   10  A    between atoms: _21  and  _22
REMARK   11  A    between atoms: _21  and  _24
REMARK   12  A    between atoms: _24  and  _25
REMARK   13  A    between atoms: _28  and  _30
REMARK   14  A    between atoms: _30  and  _31
REMARK   15  A    between atoms: _30  and  _33
REMARK   16  A    between atoms: _33  and  _34
REMARK   17  A    between atoms: _34  and  _35
REMARK   18  A    between atoms: _38  and  _40
REMARK   19  A    between atoms: _40  and  _41
REMARK   20  A    between atoms: _40  and  _43
REMARK   21  A    between atoms: _43  and  _44
REMARK   22  A    between atoms: _49  and  _51
REMARK   23  A    between atoms: _51  and  _52
REMARK   24  A    between atoms: _51  and  _54
REMARK   25  A    between atoms: _54  and  _55
REMARK   26  A    between atoms: _57  and  _59
REMARK   27  A    between atoms: _59  and  _60
REMARK   28  A    between atoms: _59  and  _62
REMARK   29  A    between atoms: _62  and  _63
REMARK   30  A    between atoms: _65  and  _67
REMARK   31  A    between atoms: _67  and  _68
REMARK   32  A    between atoms: _67  and  _70
REMARK   33  A    between atoms: _70  and  _71
REMARK   34  A    between atoms: _77  and  _79
REMARK   35  A    between atoms: _79  and  _80
REMARK   36  A    between atoms: _79  and  _82
REMARK   37  A    between atoms: _82  and  _83
REMARK   38  A    between atoms: _83  and  _84
REMARK   39  A    between atoms: _84  and  _85
REMARK   40  A    between atoms: _85  and  _86
REMARK   41  A    between atoms: _90  and  _92
REMARK   42  A    between atoms: _92  and  _93
REMARK   43  A    between atoms: _92  and  _95
REMARK   44  A    between atoms: _95  and  _96
REMARK   45  A    between atoms: _100  and  _101
REMARK   46  A    between atoms: _106  and  _108
REMARK   47  A    between atoms: _108  and  _109
REMARK   48  A    between atoms: _108  and  _111
REMARK   49  A    between atoms: _114  and  _116
REMARK   50  A    between atoms: _116  and  _117
REMARK   51  A    between atoms: _116  and  _119
REMARK   52  A    between atoms: _119  and  _120
REMARK   53  A    between atoms: _120  and  _121
REMARK   54  A    between atoms: _124  and  _126
REMARK   55  A    between atoms: _126  and  _127
REMARK   56  A    between atoms: _126  and  _129
REMARK   57  A    between atoms: _129  and  _130
REMARK   58  A    between atoms: _133  and  _135
REMARK   59  A    between atoms: _135  and  _136
REMARK   60  A    between atoms: _135  and  _138
REMARK   61  A    between atoms: _138  and  _139
REMARK   62  A    between atoms: _142  and  _144
REMARK   63  A    between atoms: _144  and  _145
REMARK   64  A    between atoms: _144  and  _147
REMARK   65  A    between atoms: _150  and  _152
REMARK   66  A    between atoms: _152  and  _153
REMARK   67  A    between atoms: _152  and  _155
REMARK   68  A    between atoms: _155  and  _156
REMARK   69  A    between atoms: _161  and  _163
REMARK   70  A    between atoms: _163  and  _164
REMARK   71  A    between atoms: _163  and  _166
REMARK   72  A    between atoms: _169  and  _171
REMARK   73  A    between atoms: _171  and  _172
REMARK   74  A    between atoms: _171  and  _174
REMARK   75  A    between atoms: _174  and  _175
REMARK   76  A    between atoms: _180  and  _181
REMARK   77  A    between atoms: _183  and  _185
REMARK   78  A    between atoms: _185  and  _186
REMARK   79  A    between atoms: _185  and  _188
REMARK   80  A    between atoms: _191  and  _193
REMARK   81  A    between atoms: _193  and  _194
REMARK   82  A    between atoms: _193  and  _196
REMARK   83  A    between atoms: _196  and  _197
REMARK   84  A    between atoms: _200  and  _202
REMARK   85  A    between atoms: _202  and  _203
REMARK   86  A    between atoms: _206  and  _208
REMARK   87  A    between atoms: _208  and  _209
REMARK   88  A    between atoms: _208  and  _211
REMARK   89  A    between atoms: _211  and  _212
REMARK   90  A    between atoms: _214  and  _216
REMARK   91  A    between atoms: _216  and  _217
REMARK   92  A    between atoms: _216  and  _219
REMARK   93  A    between atoms: _219  and  _220
REMARK   94  A    between atoms: _223  and  _225
REMARK   95  A    between atoms: _225  and  _226
REMARK   96  A    between atoms: _229  and  _231
REMARK   97  A    between atoms: _231  and  _232
REMARK   98  A    between atoms: _231  and  _234
REMARK   99  A    between atoms: _234  and  _235
REMARK  100  A    between atoms: _235  and  _236
REMARK  101  A    between atoms: _236  and  _237
REMARK  102  A    between atoms: _237  and  _238
REMARK  103  A    between atoms: _242  and  _244
REMARK  104  A    between atoms: _244  and  _245
REMARK  105  A    between atoms: _244  and  _247
REMARK  106  A    between atoms: _247  and  _248
REMARK  107  A    between atoms: _253  and  _254
REMARK  108  A    between atoms: _256  and  _258
REMARK  109  A    between atoms: _258  and  _259
REMARK  110  A    between atoms: _262  and  _264
REMARK  111  A    between atoms: _264  and  _265
REMARK  112  A    between atoms: _264  and  _267
REMARK  113  A    between atoms: _270  and  _272
REMARK  114  A    between atoms: _272  and  _273
REMARK  115  A    between atoms: _272  and  _275
REMARK  116  A    between atoms: _275  and  _276
REMARK  117  A    between atoms: _276  and  _277
REMARK  118  A    between atoms: _277  and  _278
REMARK  119  A    between atoms: _287  and  _289
REMARK  120  A    between atoms: _289  and  _290
REMARK  121  A    between atoms: _289  and  _292
REMARK  122  A    between atoms: _292  and  _293
REMARK  123  A    between atoms: _298  and  _299
REMARK  124  A    between atoms: _301  and  _303
REMARK  125  A    between atoms: _303  and  _304
REMARK  126  A    between atoms: _303  and  _306
REMARK  127  A    between atoms: _306  and  _307
REMARK  128  A    between atoms: _307  and  _308
REMARK  129  A    between atoms: _308  and  _309
REMARK  130  A    between atoms: _309  and  _310
REMARK  131  A    between atoms: _314  and  _316
REMARK  132  A    between atoms: _316  and  _317
REMARK  133  A    between atoms: _316  and  _319
REMARK  134  A    between atoms: _319  and  _320
REMARK                            x       y       z     vdW  Elec       q    Type
REMARK                         _______ _______ _______ _____ _____    ______ ____
ROOT
ATOM      1  C   LEU A   2       9.043  16.086 -11.234  0.00  0.00    +0.241 C 
ATOM      2  N   ASP A   3       8.239  15.743 -10.246  0.00  0.00    -0.297 N 
ATOM      3  H   ASP A   3       8.406  14.845  -9.748  0.00  0.00    +0.150 HD
ATOM      4  O   LEU A   2       8.961  17.169 -11.774  0.00  0.00    -0.273 OA
ENDROOT
BRANCH   1   5
ATOM      5  CA  LEU A   2      10.103  15.053 -11.641  0.00  0.00    +0.149 C 
BRANCH   5   7
ATOM      6  C   ASP A   1      12.349  15.788 -11.032  0.00  0.00    +0.239 C 
ATOM      7  N   LEU A   2      11.258  15.064 -10.758  0.00  0.00    -0.297 N 
ATOM      8  H   LEU A   2      11.235  14.493  -9.889  0.00  0.00    +0.150 HD
ATOM      9  O   ASP A   1      12.465  16.503 -12.065  0.00  0.00    -0.274 OA
BRANCH   6  10
ATOM     10  CA  ASP A   1      13.431  15.764  -9.959  0.00  0.00    +0.156 C 
BRANCH  10  11
ATOM     11  N   ASP A   1      14.750  15.994 -10.563  0.00  0.00    -0.238 NA
ATOM     12  H   ASP A   1      15.168  16.944 -10.491  0.00  0.00    +0.142 HD
ENDBRANCH  10  11
BRANCH  10  13
ATOM     13  CB  ASP A   1      13.137  16.877  -8.923  0.00  0.00    +0.140 C 
BRANCH  13  14
ATOM     14  CG  ASP A   1      11.807  16.672  -8.165  0.00  0.00    +0.367 C 
ATOM     15  OD2 ASP A   1      11.460  15.553  -7.818  0.00  0.00    -0.246 OA
ATOM     16  OD1 ASP A   1      11.063  17.655  -7.918  0.00  0.00    -0.246 OA
ENDBRANCH  13  14
ENDBRANCH  10  13
ENDBRANCH   6  10
ENDBRANCH   5   7
BRANCH   5  17
ATOM     17  CB  LEU A   2       9.511  13.651 -11.666  0.00  0.00    +0.029 C 
BRANCH  17  18
ATOM     18  CG  LEU A   2       8.332  13.416 -12.637  0.00  0.00    +0.002 C 
ATOM     19  CD2 LEU A   2       7.954  11.952 -12.596  0.00  0.00    +0.000 C 
ATOM     20  CD1 LEU A   2       8.753  13.859 -14.041  0.00  0.00    +0.000 C 
ENDBRANCH  17  18
ENDBRANCH   5  17
ENDBRANCH   1   5
BRANCH   2  21
ATOM     21  CA  ASP A   3       7.127  16.582  -9.833  0.00  0.00    +0.160 C 
BRANCH  21  22
ATOM     22  C   ASP A   3       7.501  17.963  -9.359  0.00  0.00    +0.241 C 
ATOM     23  O   ASP A   3       8.313  18.109  -8.454  0.00  0.00    -0.273 OA
ATOM     24  N   GLU A   4       6.810  18.932  -9.962  0.00  0.00    -0.298 N 
ATOM     25  H   GLU A   4       6.100  18.633 -10.660  0.00  0.00    +0.150 HD
BRANCH  24  26
ATOM     26  CA  GLU A   4       6.948  20.365  -9.743  0.00  0.00    +0.137 C 
BRANCH  26  27
ATOM     27  C   GLU A   4       8.307  20.905 -10.233  0.00  0.00    +0.227 C 
ATOM     28  O   GLU A   4       8.543  22.114 -10.200  0.00  0.00    -0.286 OA
ENDBRANCH  26  27
BRANCH  26  29
ATOM     29  CB  GLU A   4       6.605  20.825  -8.295  0.00  0.00    +0.039 C 
BRANCH  29  30
ATOM     30  CG  GLU A   4       5.157  20.634  -7.913  0.00  0.00    +0.116 C 
BRANCH  30  31
ATOM     31  CD  GLU A   4       4.793  19.160  -7.752  0.00  0.00    +0.365 C 
ATOM     32  OE2 GLU A   4       5.387  18.527  -6.871  0.00  0.00    -0.246 OA
ATOM     33  OE1 GLU A   4       3.935  18.613  -8.500  0.00  0.00    -0.246 OA
ENDBRANCH  30  31
ENDBRANCH  29  30
ENDBRANCH  26  29
ENDBRANCH  24  26
ENDBRANCH  21  22
BRANCH  21  34
ATOM     34  CB  ASP A   3       6.363  15.862  -8.768  0.00  0.00    +0.143 C 
BRANCH  34  35
ATOM     35  CG  ASP A   3       5.736  14.635  -9.304  0.00  0.00    +0.367 C 
ATOM     36  OD2 ASP A   3       6.152  13.513  -8.884  0.00  0.00    -0.246 OA
ATOM     37  OD1 ASP A   3       4.852  14.792 -10.188  0.00  0.00    -0.246 OA
ENDBRANCH  34  35
ENDBRANCH  21  34
ENDBRANCH   2  21
TORSDOF 17
REMARK  Name = ../refined-set-2016/3pgl/3pgl_pocket.pdb
REMARK  134 active torsions:
REMARK  status: ('A' for Active; 'I' for Inactive)
REMARK    1  A    between atoms: _1  and  _3
REMARK    2  A    between atoms: _3  and  _4
REMARK    3  A    between atoms: _3  and  _6
REMARK    4  A    between atoms: _6  and  _7
REMARK    5  A    between atoms: _10  and  _12
REMARK    6  A    between atoms: _12  and  _13
REMARK    7  A    between atoms: _12  and  _15
REMARK    8  A    between atoms: _15  and  _16
REMARK    9  A    between atoms: _19  and  _21
REMARK   10  A    between atoms: _21  and  _22
REMARK   11  A    between atoms: _21  and  _24
REMARK   12  A    between atoms: _24  and  _25
REMARK   13  A    between atoms: _28  and  _30
REMARK   14  A    between atoms: _30  and  _31
REMARK   15  A    between atoms: _30  and  _33
REMARK   16  A    between atoms: _33  and  _34
REMARK   17  A    between atoms: _34  and  _35
REMARK   18  A    between atoms: _38  and  _40
REMARK   19  A    between atoms: _40  and  _41
REMARK   20  A    between atoms: _40  and  _43
REMARK   21  A    between atoms: _43  and  _44
REMARK   22  A    between atoms: _49  and  _51
REMARK   23  A    between atoms: _51  and  _52
REMARK   24  A    between atoms: _51  and  _54
REMARK   25  A    between atoms: _54  and  _55
REMARK   26  A    between atoms: _57  and  _59
REMARK   27  A    between atoms: _59  and  _60
REMARK   28  A    between atoms: _59  and  _62
REMARK   29  A    between atoms: _62  and  _63
REMARK   30  A    between atoms: _65  and  _67
REMARK   31  A    between atoms: _67  and  _68
REMARK   32  A    between atoms: _67  and  _70
REMARK   33  A    between atoms: _70  and  _71
REMARK   34  A    between atoms: _77  and  _79
REMARK   35  A    between atoms: _79  and  _80
REMARK   36  A    between atoms: _79  and  _82
REMARK   37  A    between atoms: _82  and  _83
REMARK   38  A    between atoms: _83  and  _84
REMARK   39  A    between atoms: _84  and  _85
REMARK   40  A    between atoms: _85  and  _86
REMARK   41  A    between atoms: _90  and  _92
REMARK   42  A    between atoms: _92  and  _93
REMARK   43  A    between atoms: _92  and  _95
REMARK   44  A    between atoms: _95  and  _96
REMARK   45  A    between atoms: _100  and  _101
REMARK   46  A    between atoms: _106  and  _108
REMARK   47  A    between atoms: _108  and  _109
REMARK   48  A    between atoms: _108  and  _111
REMARK   49  A    between atoms: _114  and  _116
REMARK   50  A    between atoms: _116  and  _117
REMARK   51  A    between atoms: _116  and  _119
REMARK   52  A    between atoms: _119  and  _120
REMARK   53  A    between atoms: _120  and  _121
REMARK   54  A    between atoms: _124  and  _126
REMARK   55  A    between atoms: _126  and  _127
REMARK   56  A    between atoms: _126  and  _129
REMARK   57  A    between atoms: _129  and  _130
REMARK   58  A    between atoms: _133  and  _135
REMARK   59  A    between atoms: _135  and  _136
REMARK   60  A    between atoms: _135  and  _138
REMARK   61  A    between atoms: _138  and  _139
REMARK   62  A    between atoms: _142  and  _144
REMARK   63  A    between atoms: _144  and  _145
REMARK   64  A    between atoms: _144  and  _147
REMARK   65  A    between atoms: _150  and  _152
REMARK   66  A    between atoms: _152  and  _153
REMARK   67  A    between atoms: _152  and  _155
REMARK   68  A    between atoms: _155  and  _156
REMARK   69  A    between atoms: _161  and  _163
REMARK   70  A    between atoms: _163  and  _164
REMARK   71  A    between atoms: _163  and  _166
REMARK   72  A    between atoms: _169  and  _171
REMARK   73  A    between atoms: _171  and  _172
REMARK   74  A    between atoms: _171  and  _174
REMARK   75  A    between atoms: _174  and  _175
REMARK   76  A    between atoms: _180  and  _181
REMARK   77  A    between atoms: _183  and  _185
REMARK   78  A    between atoms: _185  and  _186
REMARK   79  A    between atoms: _185  and  _188
REMARK   80  A    between atoms: _191  and  _193
REMARK   81  A    between atoms: _193  and  _194
REMARK   82  A    between atoms: _193  and  _196
REMARK   83  A    between atoms: _196  and  _197
REMARK   84  A    between atoms: _200  and  _202
REMARK   85  A    between atoms: _202  and  _203
REMARK   86  A    between atoms: _206  and  _208
REMARK   87  A    between atoms: _208  and  _209
REMARK   88  A    between atoms: _208  and  _211
REMARK   89  A    between atoms: _211  and  _212
REMARK   90  A    between atoms: _214  and  _216
REMARK   91  A    between atoms: _216  and  _217
REMARK   92  A    between atoms: _216  and  _219
REMARK   93  A    between atoms: _219  and  _220
REMARK   94  A    between atoms: _223  and  _225
REMARK   95  A    between atoms: _225  and  _226
REMARK   96  A    between atoms: _229  and  _231
REMARK   97  A    between atoms: _231  and  _232
REMARK   98  A    between atoms: _231  and  _234
REMARK   99  A    between atoms: _234  and  _235
REMARK  100  A    between atoms: _235  and  _236
REMARK  101  A    between atoms: _236  and  _237
REMARK  102  A    between atoms: _237  and  _238
REMARK  103  A    between atoms: _242  and  _244
REMARK  104  A    between atoms: _244  and  _245
REMARK  105  A    between atoms: _244  and  _247
REMARK  106  A    between atoms: _247  and  _248
REMARK  107  A    between atoms: _253  and  _254
REMARK  108  A    between atoms: _256  and  _258
REMARK  109  A    between atoms: _258  and  _259
REMARK  110  A    between atoms: _262  and  _264
REMARK  111  A    between atoms: _264  and  _265
REMARK  112  A    between atoms: _264  and  _267
REMARK  113  A    between atoms: _270  and  _272
REMARK  114  A    between atoms: _272  and  _273
REMARK  115  A    between atoms: _272  and  _275
REMARK  116  A    between atoms: _275  and  _276
REMARK  117  A    between atoms: _276  and  _277
REMARK  118  A    between atoms: _277  and  _278
REMARK  119  A    between atoms: _287  and  _289
REMARK  120  A    between atoms: _289  and  _290
REMARK  121  A    between atoms: _289  and  _292
REMARK  122  A    between atoms: _292  and  _293
REMARK  123  A    between atoms: _298  and  _299
REMARK  124  A    between atoms: _301  and  _303
REMARK  125  A    between atoms: _303  and  _304
REMARK  126  A    between atoms: _303  and  _306
REMARK  127  A    between atoms: _306  and  _307
REMARK  128  A    between atoms: _307  and  _308
REMARK  129  A    between atoms: _308  and  _309
REMARK  130  A    between atoms: _309  and  _310
REMARK  131  A    between atoms: _314  and  _316
REMARK  132  A    between atoms: _316  and  _317
REMARK  133  A    between atoms: _316  and  _319
REMARK  134  A    between atoms: _319  and  _320
REMARK                            x       y       z     vdW  Elec       q    Type
REMARK                         _______ _______ _______ _____ _____    ______ ____
ROOT
ATOM      1  C   SER A   3      -3.936  14.742 -10.710  0.00  0.00    +0.243 C 
ATOM      2  N   PHE A   4      -4.652  14.414  -9.635  0.00  0.00    -0.297 N 
ATOM      3  H   PHE A   4      -4.359  14.792  -8.711  0.00  0.00    +0.150 HD
ATOM      4  O   SER A   3      -4.117  14.215 -11.822  0.00  0.00    -0.273 OA
ENDROOT
BRANCH   2   5
ATOM      5  CA  PHE A   4      -5.832  13.546  -9.691  0.00  0.00    +0.153 C 
BRANCH   5   6
ATOM      6  C   PHE A   4      -7.077  14.329 -10.122  0.00  0.00    +0.241 C 
ATOM      7  N   LYS A   5      -7.086  15.646 -10.010  0.00  0.00    -0.298 N 
ATOM      8  H   LYS A   5      -6.278  16.141  -9.581  0.00  0.00    +0.150 HD
ATOM      9  O   PHE A   4      -8.025  13.739 -10.589  0.00  0.00    -0.273 OA
BRANCH   7  10
ATOM     10  CA  LYS A   5      -8.233  16.395 -10.491  0.00  0.00    +0.137 C 
BRANCH  10  11
ATOM     11  C   LYS A   5      -8.181  16.579 -12.012  0.00  0.00    +0.227 C 
ATOM     12  O   LYS A   5      -7.170  16.987 -12.584  0.00  0.00    -0.286 OA
ENDBRANCH  10  11
BRANCH  10  13
ATOM     13  CB  LYS A   5      -8.340  17.749  -9.800  0.00  0.00    +0.028 C 
BRANCH  13  14
ATOM     14  CG  LYS A   5      -8.111  17.664  -8.263  0.00  0.00    -0.000 C 
BRANCH  14  15
ATOM     15  CD  LYS A   5      -8.012  19.020  -7.548  0.00  0.00    -0.024 C 
BRANCH  15  16
ATOM     16  CE  LYS A   5      -9.076  20.022  -8.063  0.00  0.00    -0.086 C 
BRANCH  16  17
ATOM     17  NZ  LYS A   5      -9.142  20.166  -9.611  0.00  0.00    +0.380 N 
ATOM     18  HZ1 LYS A   5      -9.879  20.855  -9.863  0.00  0.00    -0.089 HD
ATOM     19  HZ2 LYS A   5      -8.222  20.496  -9.967  0.00  0.00    -0.089 HD
ATOM     20  HZ3 LYS A   5      -9.368  19.243 -10.034  0.00  0.00    -0.089 HD
ENDBRANCH  16  17
ENDBRANCH  15  16
ENDBRANCH  14  15
ENDBRANCH  13  14
ENDBRANCH  10  13
ENDBRANCH   7  10
ENDBRANCH   5   6
BRANCH   5  21
ATOM     21  CB  PHE A   4      -6.061  12.857  -8.357  0.00  0.00    +0.055 C 
BRANCH  21  22
ATOM     22  CG  PHE A   4      -5.073  11.721  -8.061  0.00  0.00    -0.020 A 
ATOM     23  CD2 PHE A   4      -4.072  11.881  -7.102  0.00  0.00    -0.004 A 
ATOM     24  CE2 PHE A   4      -3.182  10.848  -6.819  0.00  0.00    -0.000 A 
ATOM     25  CZ  PHE A   4      -3.286   9.622  -7.508  0.00  0.00    -0.000 A 
ATOM     26  CE1 PHE A   4      -4.292   9.442  -8.425  0.00  0.00    -0.000 A 
ATOM     27  CD1 PHE A   4      -5.174  10.498  -8.708  0.00  0.00    -0.004 A 
ENDBRANCH  21  22
ENDBRANCH   5  21
ENDBRANCH   2   5
BRANCH   1  28
ATOM     28  CA  SER A   3      -2.850  15.794 -10.496  0.00  0.00    +0.178 C 
BRANCH  28  31
ATOM     29  C   SER A   2      -0.522  16.113 -11.113  0.00  0.00    +0.243 C 
ATOM     30  O   SER A   2      -0.299  16.734 -10.076  0.00  0.00    -0.273 OA
ATOM     31  N   SER A   3      -1.707  15.599 -11.382  0.00  0.00    -0.295 N 
ATOM     32  H   SER A   3      -1.830  15.039 -12.250  0.00  0.00    +0.150 HD
BRANCH  29  33
ATOM     33  CA  SER A   2       0.575  15.871 -12.128  0.00  0.00    +0.178 C 
BRANCH  33  35
ATOM     34  C   HIS A   1       1.788  17.860 -12.780  0.00  0.00    +0.239 C 
ATOM     35  N   SER A   2       1.658  16.813 -11.992  0.00  0.00    -0.295 N 
ATOM     36  H   SER A   2       2.363  16.660 -11.243  0.00  0.00    +0.150 HD
ATOM     37  O   HIS A   1       1.089  18.039 -13.765  0.00  0.00    -0.274 OA
BRANCH  34  38
ATOM     38  CA  HIS A   1       2.958  18.789 -12.468  0.00  0.00    +0.151 C 
BRANCH  38  39
ATOM     39  N   HIS A   1       3.875  18.807 -13.620  0.00  0.00    -0.238 NA
ATOM     40  H   HIS A   1       3.493  18.972 -14.573  0.00  0.00    +0.142 HD
ENDBRANCH  38  39
BRANCH  38  41
ATOM     41  CB  HIS A   1       2.489  20.194 -12.142  0.00  0.00    +0.074 C 
BRANCH  41  42
ATOM     42  CG  HIS A   1       1.400  20.243 -11.108  0.00  0.00    +0.082 A 
ATOM     43  ND1 HIS A   1       1.492  19.584  -9.899  0.00  0.00    -0.227 NA
ATOM     44  CE1 HIS A   1       0.394  19.814  -9.197  0.00  0.00    +0.199 A 
ATOM     45  NE2 HIS A   1      -0.398  20.606  -9.901  0.00  0.00    -0.221 NA
ATOM     46  CD2 HIS A   1       0.200  20.882 -11.103  0.00  0.00    +0.115 A 
ENDBRANCH  41  42
ENDBRANCH  38  41
ENDBRANCH  34  38
ENDBRANCH  33  35
BRANCH  33  47
ATOM     47  CB  SER A   2       1.130  14.496 -11.952  0.00  0.00    +0.166 C 
BRANCH  47  48
ATOM     48  OG  SER A   2       1.994  14.196 -13.061  0.00  0.00    -0.380 OA
ATOM     49  H   SER A   2       2.366  13.285 -12.951  0.00  0.00    +0.211 HD
ENDBRANCH  47  48
ENDBRANCH  33  47
ENDBRANCH  29  33
ENDBRANCH  28  31
BRANCH  28  50
ATOM     50  CB  SER A   3      -3.431  17.168 -10.726  0.00  0.00    +0.166 C 
BRANCH  50  51
ATOM     51  OG  SER A   3      -4.593  17.340  -9.925  0.00  0.00    -0.380 OA
ATOM     52  H   SER A   3      -4.969  18.243 -10.080  0.00  0.00    +0.211 HD
ENDBRANCH  50  51
ENDBRANCH  28  50
ENDBRANCH   1  28
TORSDOF 23
REMARK  Name = ../refined-set-2016/3pgl/3pgl_pocket.pdb
REMARK  134 active torsions:
REMARK  status: ('A' for Active; 'I' for Inactive)
REMARK    1  A    between atoms: _1  and  _3
REMARK    2  A    between atoms: _3  and  _4
REMARK    3  A    between atoms: _3  and  _6
REMARK    4  A    between atoms: _6  and  _7
REMARK    5  A    between atoms: _10  and  _12
REMARK    6  A    between atoms: _12  and  _13
REMARK    7  A    between atoms: _12  and  _15
REMARK    8  A    between atoms: _15  and  _16
REMARK    9  A    between atoms: _19  and  _21
REMARK   10  A    between atoms: _21  and  _22
REMARK   11  A    between atoms: _21  and  _24
REMARK   12  A    between atoms: _24  and  _25
REMARK   13  A    between atoms: _28  and  _30
REMARK   14  A    between atoms: _30  and  _31
REMARK   15  A    between atoms: _30  and  _33
REMARK   16  A    between atoms: _33  and  _34
REMARK   17  A    between atoms: _34  and  _35
REMARK   18  A    between atoms: _38  and  _40
REMARK   19  A    between atoms: _40  and  _41
REMARK   20  A    between atoms: _40  and  _43
REMARK   21  A    between atoms: _43  and  _44
REMARK   22  A    between atoms: _49  and  _51
REMARK   23  A    between atoms: _51  and  _52
REMARK   24  A    between atoms: _51  and  _54
REMARK   25  A    between atoms: _54  and  _55
REMARK   26  A    between atoms: _57  and  _59
REMARK   27  A    between atoms: _59  and  _60
REMARK   28  A    between atoms: _59  and  _62
REMARK   29  A    between atoms: _62  and  _63
REMARK   30  A    between atoms: _65  and  _67
REMARK   31  A    between atoms: _67  and  _68
REMARK   32  A    between atoms: _67  and  _70
REMARK   33  A    between atoms: _70  and  _71
REMARK   34  A    between atoms: _77  and  _79
REMARK   35  A    between atoms: _79  and  _80
REMARK   36  A    between atoms: _79  and  _82
REMARK   37  A    between atoms: _82  and  _83
REMARK   38  A    between atoms: _83  and  _84
REMARK   39  A    between atoms: _84  and  _85
REMARK   40  A    between atoms: _85  and  _86
REMARK   41  A    between atoms: _90  and  _92
REMARK   42  A    between atoms: _92  and  _93
REMARK   43  A    between atoms: _92  and  _95
REMARK   44  A    between atoms: _95  and  _96
REMARK   45  A    between atoms: _100  and  _101
REMARK   46  A    between atoms: _106  and  _108
REMARK   47  A    between atoms: _108  and  _109
REMARK   48  A    between atoms: _108  and  _111
REMARK   49  A    between atoms: _114  and  _116
REMARK   50  A    between atoms: _116  and  _117
REMARK   51  A    between atoms: _116  and  _119
REMARK   52  A    between atoms: _119  and  _120
REMARK   53  A    between atoms: _120  and  _121
REMARK   54  A    between atoms: _124  and  _126
REMARK   55  A    between atoms: _126  and  _127
REMARK   56  A    between atoms: _126  and  _129
REMARK   57  A    between atoms: _129  and  _130
REMARK   58  A    between atoms: _133  and  _135
REMARK   59  A    between atoms: _135  and  _136
REMARK   60  A    between atoms: _135  and  _138
REMARK   61  A    between atoms: _138  and  _139
REMARK   62  A    between atoms: _142  and  _144
REMARK   63  A    between atoms: _144  and  _145
REMARK   64  A    between atoms: _144  and  _147
REMARK   65  A    between atoms: _150  and  _152
REMARK   66  A    between atoms: _152  and  _153
REMARK   67  A    between atoms: _152  and  _155
REMARK   68  A    between atoms: _155  and  _156
REMARK   69  A    between atoms: _161  and  _163
REMARK   70  A    between atoms: _163  and  _164
REMARK   71  A    between atoms: _163  and  _166
REMARK   72  A    between atoms: _169  and  _171
REMARK   73  A    between atoms: _171  and  _172
REMARK   74  A    between atoms: _171  and  _174
REMARK   75  A    between atoms: _174  and  _175
REMARK   76  A    between atoms: _180  and  _181
REMARK   77  A    between atoms: _183  and  _185
REMARK   78  A    between atoms: _185  and  _186
REMARK   79  A    between atoms: _185  and  _188
REMARK   80  A    between atoms: _191  and  _193
REMARK   81  A    between atoms: _193  and  _194
REMARK   82  A    between atoms: _193  and  _196
REMARK   83  A    between atoms: _196  and  _197
REMARK   84  A    between atoms: _200  and  _202
REMARK   85  A    between atoms: _202  and  _203
REMARK   86  A    between atoms: _206  and  _208
REMARK   87  A    between atoms: _208  and  _209
REMARK   88  A    between atoms: _208  and  _211
REMARK   89  A    between atoms: _211  and  _212
REMARK   90  A    between atoms: _214  and  _216
REMARK   91  A    between atoms: _216  and  _217
REMARK   92  A    between atoms: _216  and  _219
REMARK   93  A    between atoms: _219  and  _220
REMARK   94  A    between atoms: _223  and  _225
REMARK   95  A    between atoms: _225  and  _226
REMARK   96  A    between atoms: _229  and  _231
REMARK   97  A    between atoms: _231  and  _232
REMARK   98  A    between atoms: _231  and  _234
REMARK   99  A    between atoms: _234  and  _235
REMARK  100  A    between atoms: _235  and  _236
REMARK  101  A    between atoms: _236  and  _237
REMARK  102  A    between atoms: _237  and  _238
REMARK  103  A    between atoms: _242  and  _244
REMARK  104  A    between atoms: _244  and  _245
REMARK  105  A    between atoms: _244  and  _247
REMARK  106  A    between atoms: _247  and  _248
REMARK  107  A    between atoms: _253  and  _254
REMARK  108  A    between atoms: _256  and  _258
REMARK  109  A    between atoms: _258  and  _259
REMARK  110  A    between atoms: _262  and  _264
REMARK  111  A    between atoms: _264  and  _265
REMARK  112  A    between atoms: _264  and  _267
REMARK  113  A    between atoms: _270  and  _272
REMARK  114  A    between atoms: _272  and  _273
REMARK  115  A    between atoms: _272  and  _275
REMARK  116  A    between atoms: _275  and  _276
REMARK  117  A    between atoms: _276  and  _277
REMARK  118  A    between atoms: _277  and  _278
REMARK  119  A    between atoms: _287  and  _289
REMARK  120  A    between atoms: _289  and  _290
REMARK  121  A    between atoms: _289  and  _292
REMARK  122  A    between atoms: _292  and  _293
REMARK  123  A    between atoms: _298  and  _299
REMARK  124  A    between atoms: _301  and  _303
REMARK  125  A    between atoms: _303  and  _304
REMARK  126  A    between atoms: _303  and  _306
REMARK  127  A    between atoms: _306  and  _307
REMARK  128  A    between atoms: _307  and  _308
REMARK  129  A    between atoms: _308  and  _309
REMARK  130  A    between atoms: _309  and  _310
REMARK  131  A    between atoms: _314  and  _316
REMARK  132  A    between atoms: _316  and  _317
REMARK  133  A    between atoms: _316  and  _319
REMARK  134  A    between atoms: _319  and  _320
REMARK                            x       y       z     vdW  Elec       q    Type
REMARK                         _______ _______ _______ _____ _____    ______ ____
ROOT
ATOM      1  C   VAL A   3      -3.438   3.640 -11.107  0.00  0.00    +0.241 C 
ATOM      2  O   VAL A   3      -4.471   4.190 -10.637  0.00  0.00    -0.273 OA
ATOM      3  N   GLU A   4      -3.058   2.360 -10.879  0.00  0.00    -0.297 N 
ATOM      4  H   GLU A   4      -2.190   2.018 -11.338  0.00  0.00    +0.150 HD
ENDROOT
BRANCH   3   5
ATOM      5  CA  GLU A   4      -3.810   1.414 -10.010  0.00  0.00    +0.149 C 
BRANCH   5   6
ATOM      6  C   GLU A   4      -3.492   1.649  -8.564  0.00  0.00    +0.241 C 
ATOM      7  N   ILE A   5      -4.521   2.021  -7.785  0.00  0.00    -0.297 N 
ATOM      8  H   ILE A   5      -5.460   2.127  -8.219  0.00  0.00    +0.150 HD
ATOM      9  O   GLU A   4      -2.340   1.526  -8.169  0.00  0.00    -0.273 OA
BRANCH   7  10
ATOM     10  CA  ILE A   5      -4.376   2.286  -6.340  0.00  0.00    +0.149 C 
BRANCH  10  11
ATOM     11  C   ILE A   5      -5.374   1.470  -5.520  0.00  0.00    +0.241 C 
ATOM     12  N   ASP A   6      -4.817   0.492  -4.801  0.00  0.00    -0.298 N 
ATOM     13  H   ASP A   6      -3.780   0.462  -4.735  0.00  0.00    +0.150 HD
ATOM     14  O   ILE A   5      -6.609   1.740  -5.530  0.00  0.00    -0.273 OA
BRANCH  12  15
ATOM     15  CA  ASP A   6      -5.584  -0.541  -4.100  0.00  0.00    +0.148 C 
BRANCH  15  16
ATOM     16  C   ASP A   6      -6.628  -1.064  -5.053  0.00  0.00    +0.227 C 
ATOM     17  O   ASP A   6      -7.832  -0.910  -4.789  0.00  0.00    -0.286 OA
ENDBRANCH  15  16
BRANCH  15  18
ATOM     18  CB  ASP A   6      -6.309  -0.042  -2.817  0.00  0.00    +0.142 C 
BRANCH  18  19
ATOM     19  CG  ASP A   6      -5.367   0.602  -1.794  0.00  0.00    +0.367 C 
ATOM     20  OD2 ASP A   6      -4.380  -0.041  -1.361  0.00  0.00    -0.246 OA
ATOM     21  OD1 ASP A   6      -5.628   1.767  -1.411  0.00  0.00    -0.246 OA
ENDBRANCH  18  19
ENDBRANCH  15  18
ENDBRANCH  12  15
ENDBRANCH  10  11
BRANCH  10  22
ATOM     22  CB  ILE A   5      -4.462   3.804  -5.987  0.00  0.00    +0.027 C 
ATOM     23  CG2 ILE A   5      -4.305   4.013  -4.458  0.00  0.00    +0.002 C 
BRANCH  22  24
ATOM     24  CG1 ILE A   5      -3.375   4.586  -6.745  0.00  0.00    +0.002 C 
ATOM     25  CD1 ILE A   5      -3.621   6.093  -6.851  0.00  0.00    +0.000 C 
ENDBRANCH  22  24
ENDBRANCH  10  22
ENDBRANCH   7  10
ENDBRANCH   5   6
BRANCH   5  26
ATOM     26  CB  GLU A   4      -3.568  -0.066 -10.365  0.00  0.00    +0.041 C 
BRANCH  26  27
ATOM     27  CG  GLU A   4      -4.440  -1.092  -9.531  0.00  0.00    +0.116 C 
BRANCH  27  28
ATOM     28  CD  GLU A   4      -3.620  -1.971  -8.504  0.00  0.00    +0.365 C 
ATOM     29  OE2 GLU A   4      -3.663  -1.736  -7.238  0.00  0.00    -0.246 OA
ATOM     30  OE1 GLU A   4      -2.951  -2.931  -8.986  0.00  0.00    -0.246 OA
ENDBRANCH  27  28
ENDBRANCH  26  27
ENDBRANCH   5  26
ENDBRANCH   3   5
BRANCH   1  31
ATOM     31  CA  VAL A   3      -2.517   4.461 -11.994  0.00  0.00    +0.149 C 
BRANCH  31  33
ATOM     32  C   PRO A   2      -2.986   4.780 -14.307  0.00  0.00    +0.241 C 
ATOM     33  N   VAL A   3      -3.314   5.023 -13.057  0.00  0.00    -0.297 N 
ATOM     34  H   VAL A   3      -4.140   5.615 -12.837  0.00  0.00    +0.150 HD
ATOM     35  O   PRO A   2      -2.035   4.074 -14.594  0.00  0.00    -0.273 OA
BRANCH  32  39
ATOM     36  C   ILE A   1      -2.508   7.319 -15.973  0.00  0.00    +0.241 C 
ATOM     37  O   ILE A   1      -2.989   7.878 -15.001  0.00  0.00    -0.273 OA
ATOM     38  N   PRO A   2      -2.909   6.083 -16.340  0.00  0.00    -0.272 N 
ATOM     39  CA  PRO A   2      -3.809   5.410 -15.414  0.00  0.00    +0.152 C 
ATOM     40  CB  PRO A   2      -4.436   4.318 -16.294  0.00  0.00    +0.031 C 
ATOM     41  CG  PRO A   2      -3.373   4.021 -17.255  0.00  0.00    +0.024 C 
ATOM     42  CD  PRO A   2      -2.854   5.364 -17.623  0.00  0.00    +0.094 C 
BRANCH  36  43
ATOM     43  CA  ILE A   1      -1.471   8.065 -16.843  0.00  0.00    +0.145 C 
BRANCH  43  44
ATOM     44  CB  ILE A   1      -0.180   8.234 -16.044  0.00  0.00    +0.025 C 
ATOM     45  CG2 ILE A   1       0.423   6.898 -15.724  0.00  0.00    +0.002 C 
BRANCH  44  46
ATOM     46  CG1 ILE A   1       0.841   9.158 -16.776  0.00  0.00    +0.002 C 
ATOM     47  CD1 ILE A   1       1.386   8.610 -18.120  0.00  0.00    +0.000 C 
ENDBRANCH  44  46
ENDBRANCH  43  44
BRANCH  43  48
ATOM     48  N   ILE A   1      -1.994   9.375 -17.223  0.00  0.00    -0.238 NA
ATOM     49  H   ILE A   1      -2.087  10.111 -16.494  0.00  0.00    +0.142 HD
ENDBRANCH  43  48
ENDBRANCH  36  43
ENDBRANCH  32  39
ENDBRANCH  31  33
BRANCH  31  50
ATOM     50  CB  VAL A   3      -1.854   5.584 -11.135  0.00  0.00    +0.027 C 
ATOM     51  CG2 VAL A   3      -1.145   4.997  -9.933  0.00  0.00    +0.002 C 
ATOM     52  CG1 VAL A   3      -0.879   6.382 -11.953  0.00  0.00    +0.002 C 
ENDBRANCH  31  50
ENDBRANCH   1  31
TORSDOF 21
REMARK  Name = ../refined-set-2016/3pgl/3pgl_pocket.pdb
REMARK  134 active torsions:
REMARK  status: ('A' for Active; 'I' for Inactive)
REMARK    1  A    between atoms: _1  and  _3
REMARK    2  A    between atoms: _3  and  _4
REMARK    3  A    between atoms: _3  and  _6
REMARK    4  A    between atoms: _6  and  _7
REMARK    5  A    between atoms: _10  and  _12
REMARK    6  A    between atoms: _12  and  _13
REMARK    7  A    between atoms: _12  and  _15
REMARK    8  A    between atoms: _15  and  _16
REMARK    9  A    between atoms: _19  and  _21
REMARK   10  A    between atoms: _21  and  _22
REMARK   11  A    between atoms: _21  and  _24
REMARK   12  A    between atoms: _24  and  _25
REMARK   13  A    between atoms: _28  and  _30
REMARK   14  A    between atoms: _30  and  _31
REMARK   15  A    between atoms: _30  and  _33
REMARK   16  A    between atoms: _33  and  _34
REMARK   17  A    between atoms: _34  and  _35
REMARK   18  A    between atoms: _38  and  _40
REMARK   19  A    between atoms: _40  and  _41
REMARK   20  A    between atoms: _40  and  _43
REMARK   21  A    between atoms: _43  and  _44
REMARK   22  A    between atoms: _49  and  _51
REMARK   23  A    between atoms: _51  and  _52
REMARK   24  A    between atoms: _51  and  _54
REMARK   25  A    between atoms: _54  and  _55
REMARK   26  A    between atoms: _57  and  _59
REMARK   27  A    between atoms: _59  and  _60
REMARK   28  A    between atoms: _59  and  _62
REMARK   29  A    between atoms: _62  and  _63
REMARK   30  A    between atoms: _65  and  _67
REMARK   31  A    between atoms: _67  and  _68
REMARK   32  A    between atoms: _67  and  _70
REMARK   33  A    between atoms: _70  and  _71
REMARK   34  A    between atoms: _77  and  _79
REMARK   35  A    between atoms: _79  and  _80
REMARK   36  A    between atoms: _79  and  _82
REMARK   37  A    between atoms: _82  and  _83
REMARK   38  A    between atoms: _83  and  _84
REMARK   39  A    between atoms: _84  and  _85
REMARK   40  A    between atoms: _85  and  _86
REMARK   41  A    between atoms: _90  and  _92
REMARK   42  A    between atoms: _92  and  _93
REMARK   43  A    between atoms: _92  and  _95
REMARK   44  A    between atoms: _95  and  _96
REMARK   45  A    between atoms: _100  and  _101
REMARK   46  A    between atoms: _106  and  _108
REMARK   47  A    between atoms: _108  and  _109
REMARK   48  A    between atoms: _108  and  _111
REMARK   49  A    between atoms: _114  and  _116
REMARK   50  A    between atoms: _116  and  _117
REMARK   51  A    between atoms: _116  and  _119
REMARK   52  A    between atoms: _119  and  _120
REMARK   53  A    between atoms: _120  and  _121
REMARK   54  A    between atoms: _124  and  _126
REMARK   55  A    between atoms: _126  and  _127
REMARK   56  A    between atoms: _126  and  _129
REMARK   57  A    between atoms: _129  and  _130
REMARK   58  A    between atoms: _133  and  _135
REMARK   59  A    between atoms: _135  and  _136
REMARK   60  A    between atoms: _135  and  _138
REMARK   61  A    between atoms: _138  and  _139
REMARK   62  A    between atoms: _142  and  _144
REMARK   63  A    between atoms: _144  and  _145
REMARK   64  A    between atoms: _144  and  _147
REMARK   65  A    between atoms: _150  and  _152
REMARK   66  A    between atoms: _152  and  _153
REMARK   67  A    between atoms: _152  and  _155
REMARK   68  A    between atoms: _155  and  _156
REMARK   69  A    between atoms: _161  and  _163
REMARK   70  A    between atoms: _163  and  _164
REMARK   71  A    between atoms: _163  and  _166
REMARK   72  A    between atoms: _169  and  _171
REMARK   73  A    between atoms: _171  and  _172
REMARK   74  A    between atoms: _171  and  _174
REMARK   75  A    between atoms: _174  and  _175
REMARK   76  A    between atoms: _180  and  _181
REMARK   77  A    between atoms: _183  and  _185
REMARK   78  A    between atoms: _185  and  _186
REMARK   79  A    between atoms: _185  and  _188
REMARK   80  A    between atoms: _191  and  _193
REMARK   81  A    between atoms: _193  and  _194
REMARK   82  A    between atoms: _193  and  _196
REMARK   83  A    between atoms: _196  and  _197
REMARK   84  A    between atoms: _200  and  _202
REMARK   85  A    between atoms: _202  and  _203
REMARK   86  A    between atoms: _206  and  _208
REMARK   87  A    between atoms: _208  and  _209
REMARK   88  A    between atoms: _208  and  _211
REMARK   89  A    between atoms: _211  and  _212
REMARK   90  A    between atoms: _214  and  _216
REMARK   91  A    between atoms: _216  and  _217
REMARK   92  A    between atoms: _216  and  _219
REMARK   93  A    between atoms: _219  and  _220
REMARK   94  A    between atoms: _223  and  _225
REMARK   95  A    between atoms: _225  and  _226
REMARK   96  A    between atoms: _229  and  _231
REMARK   97  A    between atoms: _231  and  _232
REMARK   98  A    between atoms: _231  and  _234
REMARK   99  A    between atoms: _234  and  _235
REMARK  100  A    between atoms: _235  and  _236
REMARK  101  A    between atoms: _236  and  _237
REMARK  102  A    between atoms: _237  and  _238
REMARK  103  A    between atoms: _242  and  _244
REMARK  104  A    between atoms: _244  and  _245
REMARK  105  A    between atoms: _244  and  _247
REMARK  106  A    between atoms: _247  and  _248
REMARK  107  A    between atoms: _253  and  _254
REMARK  108  A    between atoms: _256  and  _258
REMARK  109  A    between atoms: _258  and  _259
REMARK  110  A    between atoms: _262  and  _264
REMARK  111  A    between atoms: _264  and  _265
REMARK  112  A    between atoms: _264  and  _267
REMARK  113  A    between atoms: _270  and  _272
REMARK  114  A    between atoms: _272  and  _273
REMARK  115  A    between atoms: _272  and  _275
REMARK  116  A    between atoms: _275  and  _276
REMARK  117  A    between atoms: _276  and  _277
REMARK  118  A    between atoms: _277  and  _278
REMARK  119  A    between atoms: _287  and  _289
REMARK  120  A    between atoms: _289  and  _290
REMARK  121  A    between atoms: _289  and  _292
REMARK  122  A    between atoms: _292  and  _293
REMARK  123  A    between atoms: _298  and  _299
REMARK  124  A    between atoms: _301  and  _303
REMARK  125  A    between atoms: _303  and  _304
REMARK  126  A    between atoms: _303  and  _306
REMARK  127  A    between atoms: _306  and  _307
REMARK  128  A    between atoms: _307  and  _308
REMARK  129  A    between atoms: _308  and  _309
REMARK  130  A    between atoms: _309  and  _310
REMARK  131  A    between atoms: _314  and  _316
REMARK  132  A    between atoms: _316  and  _317
REMARK  133  A    between atoms: _316  and  _319
REMARK  134  A    between atoms: _319  and  _320
REMARK                            x       y       z     vdW  Elec       q    Type
REMARK                         _______ _______ _______ _____ _____    ______ ____
ROOT
ATOM      1  CA  VAL A   1      -8.843   0.774  -8.404  0.00  0.00    +0.133 C 
ENDROOT
BRANCH   1   2
ATOM      2  CB  VAL A   1      -9.759   1.635  -7.500  0.00  0.00    +0.023 C 
ATOM      3  CG2 VAL A   1     -10.707   0.730  -6.690  0.00  0.00    +0.002 C 
ATOM      4  CG1 VAL A   1     -10.541   2.685  -8.299  0.00  0.00    +0.002 C 
ENDBRANCH   1   2
BRANCH   1   5
ATOM      5  N   VAL A   1      -8.003  -0.108  -7.599  0.00  0.00    -0.239 NA
ATOM      6  H   VAL A   1      -7.491   0.258  -6.771  0.00  0.00    +0.142 HD
ENDBRANCH   1   5
BRANCH   1   7
ATOM      7  C   VAL A   1      -7.986   1.673  -9.267  0.00  0.00    +0.224 C 
ATOM      8  O   VAL A   1      -7.115   2.435  -8.760  0.00  0.00    -0.287 OA
ENDBRANCH   1   7
TORSDOF 3
REMARK  Name = ../refined-set-2016/3pgl/3pgl_pocket.pdb
REMARK  134 active torsions:
REMARK  status: ('A' for Active; 'I' for Inactive)
REMARK    1  A    between atoms: _1  and  _3
REMARK    2  A    between atoms: _3  and  _4
REMARK    3  A    between atoms: _3  and  _6
REMARK    4  A    between atoms: _6  and  _7
REMARK    5  A    between atoms: _10  and  _12
REMARK    6  A    between atoms: _12  and  _13
REMARK    7  A    between atoms: _12  and  _15
REMARK    8  A    between atoms: _15  and  _16
REMARK    9  A    between atoms: _19  and  _21
REMARK   10  A    between atoms: _21  and  _22
REMARK   11  A    between atoms: _21  and  _24
REMARK   12  A    between atoms: _24  and  _25
REMARK   13  A    between atoms: _28  and  _30
REMARK   14  A    between atoms: _30  and  _31
REMARK   15  A    between atoms: _30  and  _33
REMARK   16  A    between atoms: _33  and  _34
REMARK   17  A    between atoms: _34  and  _35
REMARK   18  A    between atoms: _38  and  _40
REMARK   19  A    between atoms: _40  and  _41
REMARK   20  A    between atoms: _40  and  _43
REMARK   21  A    between atoms: _43  and  _44
REMARK   22  A    between atoms: _49  and  _51
REMARK   23  A    between atoms: _51  and  _52
REMARK   24  A    between atoms: _51  and  _54
REMARK   25  A    between atoms: _54  and  _55
REMARK   26  A    between atoms: _57  and  _59
REMARK   27  A    between atoms: _59  and  _60
REMARK   28  A    between atoms: _59  and  _62
REMARK   29  A    between atoms: _62  and  _63
REMARK   30  A    between atoms: _65  and  _67
REMARK   31  A    between atoms: _67  and  _68
REMARK   32  A    between atoms: _67  and  _70
REMARK   33  A    between atoms: _70  and  _71
REMARK   34  A    between atoms: _77  and  _79
REMARK   35  A    between atoms: _79  and  _80
REMARK   36  A    between atoms: _79  and  _82
REMARK   37  A    between atoms: _82  and  _83
REMARK   38  A    between atoms: _83  and  _84
REMARK   39  A    between atoms: _84  and  _85
REMARK   40  A    between atoms: _85  and  _86
REMARK   41  A    between atoms: _90  and  _92
REMARK   42  A    between atoms: _92  and  _93
REMARK   43  A    between atoms: _92  and  _95
REMARK   44  A    between atoms: _95  and  _96
REMARK   45  A    between atoms: _100  and  _101
REMARK   46  A    between atoms: _106  and  _108
REMARK   47  A    between atoms: _108  and  _109
REMARK   48  A    between atoms: _108  and  _111
REMARK   49  A    between atoms: _114  and  _116
REMARK   50  A    between atoms: _116  and  _117
REMARK   51  A    between atoms: _116  and  _119
REMARK   52  A    between atoms: _119  and  _120
REMARK   53  A    between atoms: _120  and  _121
REMARK   54  A    between atoms: _124  and  _126
REMARK   55  A    between atoms: _126  and  _127
REMARK   56  A    between atoms: _126  and  _129
REMARK   57  A    between atoms: _129  and  _130
REMARK   58  A    between atoms: _133  and  _135
REMARK   59  A    between atoms: _135  and  _136
REMARK   60  A    between atoms: _135  and  _138
REMARK   61  A    between atoms: _138  and  _139
REMARK   62  A    between atoms: _142  and  _144
REMARK   63  A    between atoms: _144  and  _145
REMARK   64  A    between atoms: _144  and  _147
REMARK   65  A    between atoms: _150  and  _152
REMARK   66  A    between atoms: _152  and  _153
REMARK   67  A    between atoms: _152  and  _155
REMARK   68  A    between atoms: _155  and  _156
REMARK   69  A    between atoms: _161  and  _163
REMARK   70  A    between atoms: _163  and  _164
REMARK   71  A    between atoms: _163  and  _166
REMARK   72  A    between atoms: _169  and  _171
REMARK   73  A    between atoms: _171  and  _172
REMARK   74  A    between atoms: _171  and  _174
REMARK   75  A    between atoms: _174  and  _175
REMARK   76  A    between atoms: _180  and  _181
REMARK   77  A    between atoms: _183  and  _185
REMARK   78  A    between atoms: _185  and  _186
REMARK   79  A    between atoms: _185  and  _188
REMARK   80  A    between atoms: _191  and  _193
REMARK   81  A    between atoms: _193  and  _194
REMARK   82  A    between atoms: _193  and  _196
REMARK   83  A    between atoms: _196  and  _197
REMARK   84  A    between atoms: _200  and  _202
REMARK   85  A    between atoms: _202  and  _203
REMARK   86  A    between atoms: _206  and  _208
REMARK   87  A    between atoms: _208  and  _209
REMARK   88  A    between atoms: _208  and  _211
REMARK   89  A    between atoms: _211  and  _212
REMARK   90  A    between atoms: _214  and  _216
REMARK   91  A    between atoms: _216  and  _217
REMARK   92  A    between atoms: _216  and  _219
REMARK   93  A    between atoms: _219  and  _220
REMARK   94  A    between atoms: _223  and  _225
REMARK   95  A    between atoms: _225  and  _226
REMARK   96  A    between atoms: _229  and  _231
REMARK   97  A    between atoms: _231  and  _232
REMARK   98  A    between atoms: _231  and  _234
REMARK   99  A    between atoms: _234  and  _235
REMARK  100  A    between atoms: _235  and  _236
REMARK  101  A    between atoms: _236  and  _237
REMARK  102  A    between atoms: _237  and  _238
REMARK  103  A    between atoms: _242  and  _244
REMARK  104  A    between atoms: _244  and  _245
REMARK  105  A    between atoms: _244  and  _247
REMARK  106  A    between atoms: _247  and  _248
REMARK  107  A    between atoms: _253  and  _254
REMARK  108  A    between atoms: _256  and  _258
REMARK  109  A    between atoms: _258  and  _259
REMARK  110  A    between atoms: _262  and  _264
REMARK  111  A    between atoms: _264  and  _265
REMARK  112  A    between atoms: _264  and  _267
REMARK  113  A    between atoms: _270  and  _272
REMARK  114  A    between atoms: _272  and  _273
REMARK  115  A    between atoms: _272  and  _275
REMARK  116  A    between atoms: _275  and  _276
REMARK  117  A    between atoms: _276  and  _277
REMARK  118  A    between atoms: _277  and  _278
REMARK  119  A    between atoms: _287  and  _289
REMARK  120  A    between atoms: _289  and  _290
REMARK  121  A    between atoms: _289  and  _292
REMARK  122  A    between atoms: _292  and  _293
REMARK  123  A    between atoms: _298  and  _299
REMARK  124  A    between atoms: _301  and  _303
REMARK  125  A    between atoms: _303  and  _304
REMARK  126  A    between atoms: _303  and  _306
REMARK  127  A    between atoms: _306  and  _307
REMARK  128  A    between atoms: _307  and  _308
REMARK  129  A    between atoms: _308  and  _309
REMARK  130  A    between atoms: _309  and  _310
REMARK  131  A    between atoms: _314  and  _316
REMARK  132  A    between atoms: _316  and  _317
REMARK  133  A    between atoms: _316  and  _319
REMARK  134  A    between atoms: _319  and  _320
REMARK                            x       y       z     vdW  Elec       q    Type
REMARK                         _______ _______ _______ _____ _____    ______ ____
ROOT
ATOM      1  CB  HIS A   1      -6.999   6.969  -9.859  0.00  0.00    +0.072 C 
ENDROOT
BRANCH   1   2
ATOM      2  CG  HIS A   1      -7.810   6.397  -8.732  0.00  0.00    +0.082 A 
ATOM      3  CD2 HIS A   1      -7.520   5.430  -7.825  0.00  0.00    +0.115 A 
ATOM      4  NE2 HIS A   1      -8.643   5.247  -7.066  0.00  0.00    -0.221 NA
ATOM      5  CE1 HIS A   1      -9.584   6.079  -7.473  0.00  0.00    +0.199 A 
ATOM      6  ND1 HIS A   1      -9.112   6.788  -8.482  0.00  0.00    -0.227 NA
ENDBRANCH   1   2
BRANCH   1   7
ATOM      7  CA  HIS A   1      -7.369   6.393 -11.226  0.00  0.00    +0.139 C 
BRANCH   7   8
ATOM      8  N   HIS A   1      -7.103   4.955 -11.214  0.00  0.00    -0.239 NA
ATOM      9  H   HIS A   1      -6.122   4.645 -11.065  0.00  0.00    +0.142 HD
ENDBRANCH   7   8
BRANCH   7  10
ATOM     10  C   HIS A   1      -6.551   7.111 -12.323  0.00  0.00    +0.224 C 
ATOM     11  O   HIS A   1      -5.367   6.834 -12.482  0.00  0.00    -0.287 OA
ENDBRANCH   7  10
ENDBRANCH   1   7
TORSDOF 4
REMARK  Name = ../refined-set-2016/3pgl/3pgl_pocket.pdb
REMARK  134 active torsions:
REMARK  status: ('A' for Active; 'I' for Inactive)
REMARK    1  A    between atoms: _1  and  _3
REMARK    2  A    between atoms: _3  and  _4
REMARK    3  A    between atoms: _3  and  _6
REMARK    4  A    between atoms: _6  and  _7
REMARK    5  A    between atoms: _10  and  _12
REMARK    6  A    between atoms: _12  and  _13
REMARK    7  A    between atoms: _12  and  _15
REMARK    8  A    between atoms: _15  and  _16
REMARK    9  A    between atoms: _19  and  _21
REMARK   10  A    between atoms: _21  and  _22
REMARK   11  A    between atoms: _21  and  _24
REMARK   12  A    between atoms: _24  and  _25
REMARK   13  A    between atoms: _28  and  _30
REMARK   14  A    between atoms: _30  and  _31
REMARK   15  A    between atoms: _30  and  _33
REMARK   16  A    between atoms: _33  and  _34
REMARK   17  A    between atoms: _34  and  _35
REMARK   18  A    between atoms: _38  and  _40
REMARK   19  A    between atoms: _40  and  _41
REMARK   20  A    between atoms: _40  and  _43
REMARK   21  A    between atoms: _43  and  _44
REMARK   22  A    between atoms: _49  and  _51
REMARK   23  A    between atoms: _51  and  _52
REMARK   24  A    between atoms: _51  and  _54
REMARK   25  A    between atoms: _54  and  _55
REMARK   26  A    between atoms: _57  and  _59
REMARK   27  A    between atoms: _59  and  _60
REMARK   28  A    between atoms: _59  and  _62
REMARK   29  A    between atoms: _62  and  _63
REMARK   30  A    between atoms: _65  and  _67
REMARK   31  A    between atoms: _67  and  _68
REMARK   32  A    between atoms: _67  and  _70
REMARK   33  A    between atoms: _70  and  _71
REMARK   34  A    between atoms: _77  and  _79
REMARK   35  A    between atoms: _79  and  _80
REMARK   36  A    between atoms: _79  and  _82
REMARK   37  A    between atoms: _82  and  _83
REMARK   38  A    between atoms: _83  and  _84
REMARK   39  A    between atoms: _84  and  _85
REMARK   40  A    between atoms: _85  and  _86
REMARK   41  A    between atoms: _90  and  _92
REMARK   42  A    between atoms: _92  and  _93
REMARK   43  A    between atoms: _92  and  _95
REMARK   44  A    between atoms: _95  and  _96
REMARK   45  A    between atoms: _100  and  _101
REMARK   46  A    between atoms: _106  and  _108
REMARK   47  A    between atoms: _108  and  _109
REMARK   48  A    between atoms: _108  and  _111
REMARK   49  A    between atoms: _114  and  _116
REMARK   50  A    between atoms: _116  and  _117
REMARK   51  A    between atoms: _116  and  _119
REMARK   52  A    between atoms: _119  and  _120
REMARK   53  A    between atoms: _120  and  _121
REMARK   54  A    between atoms: _124  and  _126
REMARK   55  A    between atoms: _126  and  _127
REMARK   56  A    between atoms: _126  and  _129
REMARK   57  A    between atoms: _129  and  _130
REMARK   58  A    between atoms: _133  and  _135
REMARK   59  A    between atoms: _135  and  _136
REMARK   60  A    between atoms: _135  and  _138
REMARK   61  A    between atoms: _138  and  _139
REMARK   62  A    between atoms: _142  and  _144
REMARK   63  A    between atoms: _144  and  _145
REMARK   64  A    between atoms: _144  and  _147
REMARK   65  A    between atoms: _150  and  _152
REMARK   66  A    between atoms: _152  and  _153
REMARK   67  A    between atoms: _152  and  _155
REMARK   68  A    between atoms: _155  and  _156
REMARK   69  A    between atoms: _161  and  _163
REMARK   70  A    between atoms: _163  and  _164
REMARK   71  A    between atoms: _163  and  _166
REMARK   72  A    between atoms: _169  and  _171
REMARK   73  A    between atoms: _171  and  _172
REMARK   74  A    between atoms: _171  and  _174
REMARK   75  A    between atoms: _174  and  _175
REMARK   76  A    between atoms: _180  and  _181
REMARK   77  A    between atoms: _183  and  _185
REMARK   78  A    between atoms: _185  and  _186
REMARK   79  A    between atoms: _185  and  _188
REMARK   80  A    between atoms: _191  and  _193
REMARK   81  A    between atoms: _193  and  _194
REMARK   82  A    between atoms: _193  and  _196
REMARK   83  A    between atoms: _196  and  _197
REMARK   84  A    between atoms: _200  and  _202
REMARK   85  A    between atoms: _202  and  _203
REMARK   86  A    between atoms: _206  and  _208
REMARK   87  A    between atoms: _208  and  _209
REMARK   88  A    between atoms: _208  and  _211
REMARK   89  A    between atoms: _211  and  _212
REMARK   90  A    between atoms: _214  and  _216
REMARK   91  A    between atoms: _216  and  _217
REMARK   92  A    between atoms: _216  and  _219
REMARK   93  A    between atoms: _219  and  _220
REMARK   94  A    between atoms: _223  and  _225
REMARK   95  A    between atoms: _225  and  _226
REMARK   96  A    between atoms: _229  and  _231
REMARK   97  A    between atoms: _231  and  _232
REMARK   98  A    between atoms: _231  and  _234
REMARK   99  A    between atoms: _234  and  _235
REMARK  100  A    between atoms: _235  and  _236
REMARK  101  A    between atoms: _236  and  _237
REMARK  102  A    between atoms: _237  and  _238
REMARK  103  A    between atoms: _242  and  _244
REMARK  104  A    between atoms: _244  and  _245
REMARK  105  A    between atoms: _244  and  _247
REMARK  106  A    between atoms: _247  and  _248
REMARK  107  A    between atoms: _253  and  _254
REMARK  108  A    between atoms: _256  and  _258
REMARK  109  A    between atoms: _258  and  _259
REMARK  110  A    between atoms: _262  and  _264
REMARK  111  A    between atoms: _264  and  _265
REMARK  112  A    between atoms: _264  and  _267
REMARK  113  A    between atoms: _270  and  _272
REMARK  114  A    between atoms: _272  and  _273
REMARK  115  A    between atoms: _272  and  _275
REMARK  116  A    between atoms: _275  and  _276
REMARK  117  A    between atoms: _276  and  _277
REMARK  118  A    between atoms: _277  and  _278
REMARK  119  A    between atoms: _287  and  _289
REMARK  120  A    between atoms: _289  and  _290
REMARK  121  A    between atoms: _289  and  _292
REMARK  122  A    between atoms: _292  and  _293
REMARK  123  A    between atoms: _298  and  _299
REMARK  124  A    between atoms: _301  and  _303
REMARK  125  A    between atoms: _303  and  _304
REMARK  126  A    between atoms: _303  and  _306
REMARK  127  A    between atoms: _306  and  _307
REMARK  128  A    between atoms: _307  and  _308
REMARK  129  A    between atoms: _308  and  _309
REMARK  130  A    between atoms: _309  and  _310
REMARK  131  A    between atoms: _314  and  _316
REMARK  132  A    between atoms: _316  and  _317
REMARK  133  A    between atoms: _316  and  _319
REMARK  134  A    between atoms: _319  and  _320
REMARK                            x       y       z     vdW  Elec       q    Type
REMARK                         _______ _______ _______ _____ _____    ______ ____
ROOT
ATOM      1  CA  TYR A   2      -3.441  14.347 -15.383  0.00  0.00    +0.153 C 
ENDROOT
BRANCH   1   3
ATOM      2  C   VAL A   1      -3.198  12.070 -14.561  0.00  0.00    +0.238 C 
ATOM      3  N   TYR A   2      -3.541  13.337 -14.362  0.00  0.00    -0.297 N 
ATOM      4  H   TYR A   2      -3.899  13.613 -13.425  0.00  0.00    +0.150 HD
ATOM      5  O   VAL A   1      -2.694  11.666 -15.610  0.00  0.00    -0.274 OA
BRANCH   2   6
ATOM      6  CA  VAL A   1      -3.466  11.095 -13.406  0.00  0.00    +0.145 C 
BRANCH   6   7
ATOM      7  CB  VAL A   1      -2.123  10.598 -12.837  0.00  0.00    +0.025 C 
ATOM      8  CG2 VAL A   1      -2.360   9.690 -11.648  0.00  0.00    +0.002 C 
ATOM      9  CG1 VAL A   1      -1.216  11.777 -12.423  0.00  0.00    +0.002 C 
ENDBRANCH   6   7
BRANCH   6  10
ATOM     10  N   VAL A   1      -4.343   9.987 -13.860  0.00  0.00    -0.238 NA
ATOM     11  H   VAL A   1      -3.943   9.267 -14.495  0.00  0.00    +0.142 HD
ENDBRANCH   6  10
ENDBRANCH   2   6
ENDBRANCH   1   3
BRANCH   1  12
ATOM     12  C   TYR A   2      -2.114  15.113 -15.337  0.00  0.00    +0.241 C 
ATOM     13  O   TYR A   2      -1.862  15.911 -14.420  0.00  0.00    -0.273 OA
ATOM     14  N   VAL A   3      -1.272  14.871 -16.351  0.00  0.00    -0.298 N 
ATOM     15  H   VAL A   3      -1.603  14.313 -17.164  0.00  0.00    +0.150 HD
BRANCH  14  16
ATOM     16  CA  VAL A   3       0.101  15.373 -16.342  0.00  0.00    +0.137 C 
BRANCH  16  17
ATOM     17  CB  VAL A   3       1.096  14.273 -16.652  0.00  0.00    +0.026 C 
ATOM     18  CG2 VAL A   3       0.800  13.002 -15.754  0.00  0.00    +0.002 C 
ATOM     19  CG1 VAL A   3       2.459  14.789 -16.385  0.00  0.00    +0.002 C 
ENDBRANCH  16  17
BRANCH  16  20
ATOM     20  C   VAL A   3       0.277  16.532 -17.268  0.00  0.00    +0.227 C 
ATOM     21  O   VAL A   3      -0.053  16.425 -18.438  0.00  0.00    -0.286 OA
ENDBRANCH  16  20
ENDBRANCH  14  16
ENDBRANCH   1  12
BRANCH   1  22
ATOM     22  CB  TYR A   2      -4.671  15.283 -15.333  0.00  0.00    +0.055 C 
BRANCH  22  23
ATOM     23  CG  TYR A   2      -5.971  14.534 -15.541  0.00  0.00    -0.020 A 
ATOM     24  CD2 TYR A   2      -6.495  13.713 -14.543  0.00  0.00    -0.001 A 
ATOM     25  CE2 TYR A   2      -7.699  13.007 -14.739  0.00  0.00    +0.036 A 
ATOM     26  CZ  TYR A   2      -8.356  13.129 -15.953  0.00  0.00    +0.134 A 
ATOM     27  CE1 TYR A   2      -7.846  13.946 -16.947  0.00  0.00    +0.036 A 
ATOM     28  CD1 TYR A   2      -6.670  14.623 -16.754  0.00  0.00    -0.001 A 
BRANCH  26  29
ATOM     29  OH  TYR A   2      -9.545  12.447 -16.167  0.00  0.00    -0.506 OA
ATOM     30  HH  TYR A   2      -9.767  11.913 -15.364  0.00  0.00    +0.292 HD
ENDBRANCH  26  29
ENDBRANCH  22  23
ENDBRANCH   1  22
TORSDOF 11
REMARK  Name = ../refined-set-2016/3pgl/3pgl_pocket.pdb
REMARK  134 active torsions:
REMARK  status: ('A' for Active; 'I' for Inactive)
REMARK    1  A    between atoms: _1  and  _3
REMARK    2  A    between atoms: _3  and  _4
REMARK    3  A    between atoms: _3  and  _6
REMARK    4  A    between atoms: _6  and  _7
REMARK    5  A    between atoms: _10  and  _12
REMARK    6  A    between atoms: _12  and  _13
REMARK    7  A    between atoms: _12  and  _15
REMARK    8  A    between atoms: _15  and  _16
REMARK    9  A    between atoms: _19  and  _21
REMARK   10  A    between atoms: _21  and  _22
REMARK   11  A    between atoms: _21  and  _24
REMARK   12  A    between atoms: _24  and  _25
REMARK   13  A    between atoms: _28  and  _30
REMARK   14  A    between atoms: _30  and  _31
REMARK   15  A    between atoms: _30  and  _33
REMARK   16  A    between atoms: _33  and  _34
REMARK   17  A    between atoms: _34  and  _35
REMARK   18  A    between atoms: _38  and  _40
REMARK   19  A    between atoms: _40  and  _41
REMARK   20  A    between atoms: _40  and  _43
REMARK   21  A    between atoms: _43  and  _44
REMARK   22  A    between atoms: _49  and  _51
REMARK   23  A    between atoms: _51  and  _52
REMARK   24  A    between atoms: _51  and  _54
REMARK   25  A    between atoms: _54  and  _55
REMARK   26  A    between atoms: _57  and  _59
REMARK   27  A    between atoms: _59  and  _60
REMARK   28  A    between atoms: _59  and  _62
REMARK   29  A    between atoms: _62  and  _63
REMARK   30  A    between atoms: _65  and  _67
REMARK   31  A    between atoms: _67  and  _68
REMARK   32  A    between atoms: _67  and  _70
REMARK   33  A    between atoms: _70  and  _71
REMARK   34  A    between atoms: _77  and  _79
REMARK   35  A    between atoms: _79  and  _80
REMARK   36  A    between atoms: _79  and  _82
REMARK   37  A    between atoms: _82  and  _83
REMARK   38  A    between atoms: _83  and  _84
REMARK   39  A    between atoms: _84  and  _85
REMARK   40  A    between atoms: _85  and  _86
REMARK   41  A    between atoms: _90  and  _92
REMARK   42  A    between atoms: _92  and  _93
REMARK   43  A    between atoms: _92  and  _95
REMARK   44  A    between atoms: _95  and  _96
REMARK   45  A    between atoms: _100  and  _101
REMARK   46  A    between atoms: _106  and  _108
REMARK   47  A    between atoms: _108  and  _109
REMARK   48  A    between atoms: _108  and  _111
REMARK   49  A    between atoms: _114  and  _116
REMARK   50  A    between atoms: _116  and  _117
REMARK   51  A    between atoms: _116  and  _119
REMARK   52  A    between atoms: _119  and  _120
REMARK   53  A    between atoms: _120  and  _121
REMARK   54  A    between atoms: _124  and  _126
REMARK   55  A    between atoms: _126  and  _127
REMARK   56  A    between atoms: _126  and  _129
REMARK   57  A    between atoms: _129  and  _130
REMARK   58  A    between atoms: _133  and  _135
REMARK   59  A    between atoms: _135  and  _136
REMARK   60  A    between atoms: _135  and  _138
REMARK   61  A    between atoms: _138  and  _139
REMARK   62  A    between atoms: _142  and  _144
REMARK   63  A    between atoms: _144  and  _145
REMARK   64  A    between atoms: _144  and  _147
REMARK   65  A    between atoms: _150  and  _152
REMARK   66  A    between atoms: _152  and  _153
REMARK   67  A    between atoms: _152  and  _155
REMARK   68  A    between atoms: _155  and  _156
REMARK   69  A    between atoms: _161  and  _163
REMARK   70  A    between atoms: _163  and  _164
REMARK   71  A    between atoms: _163  and  _166
REMARK   72  A    between atoms: _169  and  _171
REMARK   73  A    between atoms: _171  and  _172
REMARK   74  A    between atoms: _171  and  _174
REMARK   75  A    between atoms: _174  and  _175
REMARK   76  A    between atoms: _180  and  _181
REMARK   77  A    between atoms: _183  and  _185
REMARK   78  A    between atoms: _185  and  _186
REMARK   79  A    between atoms: _185  and  _188
REMARK   80  A    between atoms: _191  and  _193
REMARK   81  A    between atoms: _193  and  _194
REMARK   82  A    between atoms: _193  and  _196
REMARK   83  A    between atoms: _196  and  _197
REMARK   84  A    between atoms: _200  and  _202
REMARK   85  A    between atoms: _202  and  _203
REMARK   86  A    between atoms: _206  and  _208
REMARK   87  A    between atoms: _208  and  _209
REMARK   88  A    between atoms: _208  and  _211
REMARK   89  A    between atoms: _211  and  _212
REMARK   90  A    between atoms: _214  and  _216
REMARK   91  A    between atoms: _216  and  _217
REMARK   92  A    between atoms: _216  and  _219
REMARK   93  A    between atoms: _219  and  _220
REMARK   94  A    between atoms: _223  and  _225
REMARK   95  A    between atoms: _225  and  _226
REMARK   96  A    between atoms: _229  and  _231
REMARK   97  A    between atoms: _231  and  _232
REMARK   98  A    between atoms: _231  and  _234
REMARK   99  A    between atoms: _234  and  _235
REMARK  100  A    between atoms: _235  and  _236
REMARK  101  A    between atoms: _236  and  _237
REMARK  102  A    between atoms: _237  and  _238
REMARK  103  A    between atoms: _242  and  _244
REMARK  104  A    between atoms: _244  and  _245
REMARK  105  A    between atoms: _244  and  _247
REMARK  106  A    between atoms: _247  and  _248
REMARK  107  A    between atoms: _253  and  _254
REMARK  108  A    between atoms: _256  and  _258
REMARK  109  A    between atoms: _258  and  _259
REMARK  110  A    between atoms: _262  and  _264
REMARK  111  A    between atoms: _264  and  _265
REMARK  112  A    between atoms: _264  and  _267
REMARK  113  A    between atoms: _270  and  _272
REMARK  114  A    between atoms: _272  and  _273
REMARK  115  A    between atoms: _272  and  _275
REMARK  116  A    between atoms: _275  and  _276
REMARK  117  A    between atoms: _276  and  _277
REMARK  118  A    between atoms: _277  and  _278
REMARK  119  A    between atoms: _287  and  _289
REMARK  120  A    between atoms: _289  and  _290
REMARK  121  A    between atoms: _289  and  _292
REMARK  122  A    between atoms: _292  and  _293
REMARK  123  A    between atoms: _298  and  _299
REMARK  124  A    between atoms: _301  and  _303
REMARK  125  A    between atoms: _303  and  _304
REMARK  126  A    between atoms: _303  and  _306
REMARK  127  A    between atoms: _306  and  _307
REMARK  128  A    between atoms: _307  and  _308
REMARK  129  A    between atoms: _308  and  _309
REMARK  130  A    between atoms: _309  and  _310
REMARK  131  A    between atoms: _314  and  _316
REMARK  132  A    between atoms: _316  and  _317
REMARK  133  A    between atoms: _316  and  _319
REMARK  134  A    between atoms: _319  and  _320
REMARK                            x       y       z     vdW  Elec       q    Type
REMARK                         _______ _______ _______ _____ _____    ______ ____
ROOT
ATOM      1  CA  ALA A   5       7.640   3.907 -10.127  0.00  0.00    +0.149 C 
ATOM      2  CB  ALA A   5       8.425   2.652 -10.168  0.00  0.00    +0.031 C 
ENDROOT
BRANCH   1   4
ATOM      3  C   LEU A   4       6.579   5.336  -8.409  0.00  0.00    +0.241 C 
ATOM      4  N   ALA A   5       7.325   4.274  -8.719  0.00  0.00    -0.297 N 
ATOM      5  H   ALA A   5       7.699   3.682  -7.950  0.00  0.00    +0.150 HD
ATOM      6  O   LEU A   4       6.094   6.073  -9.260  0.00  0.00    -0.273 OA
BRANCH   3   7
ATOM      7  CA  LEU A   4       6.370   5.640  -6.935  0.00  0.00    +0.149 C 
BRANCH   7  10
ATOM      8  C   SER A   3       7.425   7.753  -6.498  0.00  0.00    +0.243 C 
ATOM      9  O   SER A   3       8.570   7.270  -6.462  0.00  0.00    -0.273 OA
ATOM     10  N   LEU A   4       6.355   7.058  -6.810  0.00  0.00    -0.297 N 
ATOM     11  H   LEU A   4       5.461   7.564  -6.972  0.00  0.00    +0.150 HD
BRANCH   8  12
ATOM     12  CA  SER A   3       7.142   9.201  -6.306  0.00  0.00    +0.178 C 
BRANCH  12  15
ATOM     13  C   ALA A   2       8.843   9.841  -4.635  0.00  0.00    +0.241 C 
ATOM     14  O   ALA A   2       8.376   9.107  -3.735  0.00  0.00    -0.273 OA
ATOM     15  N   SER A   3       8.328   9.924  -5.876  0.00  0.00    -0.295 N 
ATOM     16  H   SER A   3       8.805  10.539  -6.565  0.00  0.00    +0.150 HD
BRANCH  13  17
ATOM     17  CA  ALA A   2      10.094  10.672  -4.349  0.00  0.00    +0.149 C 
ATOM     18  CB  ALA A   2       9.821  11.679  -3.254  0.00  0.00    +0.031 C 
BRANCH  17  20
ATOM     19  C   THR A   1      11.484  10.649  -6.393  0.00  0.00    +0.241 C 
ATOM     20  N   ALA A   2      10.654  11.305  -5.576  0.00  0.00    -0.297 N 
ATOM     21  H   ALA A   2      10.392  12.285  -5.803  0.00  0.00    +0.150 HD
ATOM     22  O   THR A   1      11.881   9.474  -6.170  0.00  0.00    -0.274 OA
BRANCH  19  23
ATOM     23  CA  THR A   1      11.949  11.417  -7.672  0.00  0.00    +0.172 C 
BRANCH  23  24
ATOM     24  CB  THR A   1      10.841  11.403  -8.726  0.00  0.00    +0.135 C 
ATOM     25  CG2 THR A   1      10.406   9.995  -9.052  0.00  0.00    +0.034 C 
BRANCH  24  26
ATOM     26  OG1 THR A   1       9.727  12.199  -8.269  0.00  0.00    -0.383 OA
ATOM     27  HG1 THR A   1       9.012  12.188  -8.954  0.00  0.00    +0.210 HD
ENDBRANCH  24  26
ENDBRANCH  23  24
BRANCH  23  28
ATOM     28  N   THR A   1      13.185  10.883  -8.239  0.00  0.00    -0.236 NA
ATOM     29  H   THR A   1      13.213   9.892  -8.555  0.00  0.00    +0.142 HD
ENDBRANCH  23  28
ENDBRANCH  19  23
ENDBRANCH  17  20
ENDBRANCH  13  17
ENDBRANCH  12  15
BRANCH  12  30
ATOM     30  CB  SER A   3       6.618   9.745  -7.639  0.00  0.00    +0.166 C 
BRANCH  30  31
ATOM     31  OG  SER A   3       6.553  11.191  -7.639  0.00  0.00    -0.380 OA
ATOM     32  H   SER A   3       6.211  11.505  -8.514  0.00  0.00    +0.211 HD
ENDBRANCH  30  31
ENDBRANCH  12  30
ENDBRANCH   8  12
ENDBRANCH   7  10
BRANCH   7  33
ATOM     33  CB  LEU A   4       5.022   5.119  -6.409  0.00  0.00    +0.029 C 
BRANCH  33  34
ATOM     34  CG  LEU A   4       4.790   5.188  -4.874  0.00  0.00    +0.002 C 
ATOM     35  CD2 LEU A   4       5.727   4.264  -4.056  0.00  0.00    +0.000 C 
ATOM     36  CD1 LEU A   4       3.311   4.788  -4.570  0.00  0.00    +0.000 C 
ENDBRANCH  33  34
ENDBRANCH   7  33
ENDBRANCH   3   7
ENDBRANCH   1   4
BRANCH   1  37
ATOM     37  C   ALA A   5       6.384   3.760 -10.993  0.00  0.00    +0.241 C 
ATOM     38  N   LYS A   6       5.305   3.297 -10.355  0.00  0.00    -0.297 N 
ATOM     39  H   LYS A   6       5.319   3.210  -9.319  0.00  0.00    +0.150 HD
ATOM     40  O   ALA A   5       6.381   4.070 -12.203  0.00  0.00    -0.273 OA
BRANCH  38  41
ATOM     41  CA  LYS A   6       4.112   2.914 -11.093  0.00  0.00    +0.149 C 
BRANCH  41  42
ATOM     42  C   LYS A   6       3.525   4.171 -11.729  0.00  0.00    +0.241 C 
ATOM     43  N   TYR A   7       3.815   5.332 -11.157  0.00  0.00    -0.297 N 
ATOM     44  H   TYR A   7       4.344   5.346 -10.262  0.00  0.00    +0.150 HD
ATOM     45  O   LYS A   6       2.829   4.074 -12.737  0.00  0.00    -0.273 OA
BRANCH  43  46
ATOM     46  CA  TYR A   7       3.406   6.570 -11.760  0.00  0.00    +0.153 C 
BRANCH  46  47
ATOM     47  C   TYR A   7       4.583   7.200 -12.534  0.00  0.00    +0.241 C 
ATOM     48  N   ALA A   8       5.775   7.249 -11.933  0.00  0.00    -0.298 N 
ATOM     49  H   ALA A   8       5.923   6.728 -11.045  0.00  0.00    +0.150 HD
ATOM     50  O   TYR A   7       4.390   7.685 -13.644  0.00  0.00    -0.273 OA
BRANCH  48  51
ATOM     51  CA  ALA A   8       6.901   8.043 -12.519  0.00  0.00    +0.137 C 
ATOM     52  CB  ALA A   8       7.967   8.340 -11.487  0.00  0.00    +0.030 C 
BRANCH  51  53
ATOM     53  C   ALA A   8       7.522   7.410 -13.804  0.00  0.00    +0.227 C 
ATOM     54  O   ALA A   8       7.892   8.140 -14.702  0.00  0.00    -0.286 OA
ENDBRANCH  51  53
ENDBRANCH  48  51
ENDBRANCH  46  47
BRANCH  46  55
ATOM     55  CB  TYR A   7       2.833   7.574 -10.699  0.00  0.00    +0.055 C 
BRANCH  55  56
ATOM     56  CG  TYR A   7       3.122   9.040 -11.006  0.00  0.00    -0.020 A 
ATOM     57  CD2 TYR A   7       4.158   9.740 -10.351  0.00  0.00    -0.001 A 
ATOM     58  CE2 TYR A   7       4.462  11.112 -10.652  0.00  0.00    +0.036 A 
ATOM     59  CZ  TYR A   7       3.715  11.757 -11.645  0.00  0.00    +0.134 A 
ATOM     60  CE1 TYR A   7       2.700  11.076 -12.293  0.00  0.00    +0.036 A 
ATOM     61  CD1 TYR A   7       2.419   9.699 -11.977  0.00  0.00    -0.001 A 
BRANCH  59  62
ATOM     62  OH  TYR A   7       3.963  13.075 -12.029  0.00  0.00    -0.506 OA
ATOM     63  HH  TYR A   7       3.326  13.336 -12.741  0.00  0.00    +0.292 HD
ENDBRANCH  59  62
ENDBRANCH  55  56
ENDBRANCH  46  55
ENDBRANCH  43  46
ENDBRANCH  41  42
BRANCH  41  64
ATOM     64  CB  LYS A   6       3.089   2.181 -10.200  0.00  0.00    +0.029 C 
BRANCH  64  65
ATOM     65  CG  LYS A   6       2.585   3.026  -9.059  0.00  0.00    +0.000 C 
BRANCH  65  66
ATOM     66  CD  LYS A   6       1.208   2.621  -8.573  0.00  0.00    -0.024 C 
BRANCH  66  67
ATOM     67  CE  LYS A   6       1.248   1.450  -7.616  0.00  0.00    -0.086 C 
BRANCH  67  68
ATOM     68  NZ  LYS A   6       0.022   1.338  -6.712  0.00  0.00    +0.380 N 
ATOM     69  HZ1 LYS A   6       0.127   0.513  -6.088  0.00  0.00    -0.089 HD
ATOM     70  HZ2 LYS A   6      -0.063   2.200  -6.137  0.00  0.00    -0.089 HD
ATOM     71  HZ3 LYS A   6      -0.830   1.225  -7.298  0.00  0.00    -0.089 HD
ENDBRANCH  67  68
ENDBRANCH  66  67
ENDBRANCH  65  66
ENDBRANCH  64  65
ENDBRANCH  41  64
ENDBRANCH  38  41
ENDBRANCH   1  37
TORSDOF 30
REMARK  Name = ../refined-set-2016/3pgl/3pgl_pocket.pdb
REMARK  134 active torsions:
REMARK  status: ('A' for Active; 'I' for Inactive)
REMARK    1  A    between atoms: _1  and  _3
REMARK    2  A    between atoms: _3  and  _4
REMARK    3  A    between atoms: _3  and  _6
REMARK    4  A    between atoms: _6  and  _7
REMARK    5  A    between atoms: _10  and  _12
REMARK    6  A    between atoms: _12  and  _13
REMARK    7  A    between atoms: _12  and  _15
REMARK    8  A    between atoms: _15  and  _16
REMARK    9  A    between atoms: _19  and  _21
REMARK   10  A    between atoms: _21  and  _22
REMARK   11  A    between atoms: _21  and  _24
REMARK   12  A    between atoms: _24  and  _25
REMARK   13  A    between atoms: _28  and  _30
REMARK   14  A    between atoms: _30  and  _31
REMARK   15  A    between atoms: _30  and  _33
REMARK   16  A    between atoms: _33  and  _34
REMARK   17  A    between atoms: _34  and  _35
REMARK   18  A    between atoms: _38  and  _40
REMARK   19  A    between atoms: _40  and  _41
REMARK   20  A    between atoms: _40  and  _43
REMARK   21  A    between atoms: _43  and  _44
REMARK   22  A    between atoms: _49  and  _51
REMARK   23  A    between atoms: _51  and  _52
REMARK   24  A    between atoms: _51  and  _54
REMARK   25  A    between atoms: _54  and  _55
REMARK   26  A    between atoms: _57  and  _59
REMARK   27  A    between atoms: _59  and  _60
REMARK   28  A    between atoms: _59  and  _62
REMARK   29  A    between atoms: _62  and  _63
REMARK   30  A    between atoms: _65  and  _67
REMARK   31  A    between atoms: _67  and  _68
REMARK   32  A    between atoms: _67  and  _70
REMARK   33  A    between atoms: _70  and  _71
REMARK   34  A    between atoms: _77  and  _79
REMARK   35  A    between atoms: _79  and  _80
REMARK   36  A    between atoms: _79  and  _82
REMARK   37  A    between atoms: _82  and  _83
REMARK   38  A    between atoms: _83  and  _84
REMARK   39  A    between atoms: _84  and  _85
REMARK   40  A    between atoms: _85  and  _86
REMARK   41  A    between atoms: _90  and  _92
REMARK   42  A    between atoms: _92  and  _93
REMARK   43  A    between atoms: _92  and  _95
REMARK   44  A    between atoms: _95  and  _96
REMARK   45  A    between atoms: _100  and  _101
REMARK   46  A    between atoms: _106  and  _108
REMARK   47  A    between atoms: _108  and  _109
REMARK   48  A    between atoms: _108  and  _111
REMARK   49  A    between atoms: _114  and  _116
REMARK   50  A    between atoms: _116  and  _117
REMARK   51  A    between atoms: _116  and  _119
REMARK   52  A    between atoms: _119  and  _120
REMARK   53  A    between atoms: _120  and  _121
REMARK   54  A    between atoms: _124  and  _126
REMARK   55  A    between atoms: _126  and  _127
REMARK   56  A    between atoms: _126  and  _129
REMARK   57  A    between atoms: _129  and  _130
REMARK   58  A    between atoms: _133  and  _135
REMARK   59  A    between atoms: _135  and  _136
REMARK   60  A    between atoms: _135  and  _138
REMARK   61  A    between atoms: _138  and  _139
REMARK   62  A    between atoms: _142  and  _144
REMARK   63  A    between atoms: _144  and  _145
REMARK   64  A    between atoms: _144  and  _147
REMARK   65  A    between atoms: _150  and  _152
REMARK   66  A    between atoms: _152  and  _153
REMARK   67  A    between atoms: _152  and  _155
REMARK   68  A    between atoms: _155  and  _156
REMARK   69  A    between atoms: _161  and  _163
REMARK   70  A    between atoms: _163  and  _164
REMARK   71  A    between atoms: _163  and  _166
REMARK   72  A    between atoms: _169  and  _171
REMARK   73  A    between atoms: _171  and  _172
REMARK   74  A    between atoms: _171  and  _174
REMARK   75  A    between atoms: _174  and  _175
REMARK   76  A    between atoms: _180  and  _181
REMARK   77  A    between atoms: _183  and  _185
REMARK   78  A    between atoms: _185  and  _186
REMARK   79  A    between atoms: _185  and  _188
REMARK   80  A    between atoms: _191  and  _193
REMARK   81  A    between atoms: _193  and  _194
REMARK   82  A    between atoms: _193  and  _196
REMARK   83  A    between atoms: _196  and  _197
REMARK   84  A    between atoms: _200  and  _202
REMARK   85  A    between atoms: _202  and  _203
REMARK   86  A    between atoms: _206  and  _208
REMARK   87  A    between atoms: _208  and  _209
REMARK   88  A    between atoms: _208  and  _211
REMARK   89  A    between atoms: _211  and  _212
REMARK   90  A    between atoms: _214  and  _216
REMARK   91  A    between atoms: _216  and  _217
REMARK   92  A    between atoms: _216  and  _219
REMARK   93  A    between atoms: _219  and  _220
REMARK   94  A    between atoms: _223  and  _225
REMARK   95  A    between atoms: _225  and  _226
REMARK   96  A    between atoms: _229  and  _231
REMARK   97  A    between atoms: _231  and  _232
REMARK   98  A    between atoms: _231  and  _234
REMARK   99  A    between atoms: _234  and  _235
REMARK  100  A    between atoms: _235  and  _236
REMARK  101  A    between atoms: _236  and  _237
REMARK  102  A    between atoms: _237  and  _238
REMARK  103  A    between atoms: _242  and  _244
REMARK  104  A    between atoms: _244  and  _245
REMARK  105  A    between atoms: _244  and  _247
REMARK  106  A    between atoms: _247  and  _248
REMARK  107  A    between atoms: _253  and  _254
REMARK  108  A    between atoms: _256  and  _258
REMARK  109  A    between atoms: _258  and  _259
REMARK  110  A    between atoms: _262  and  _264
REMARK  111  A    between atoms: _264  and  _265
REMARK  112  A    between atoms: _264  and  _267
REMARK  113  A    between atoms: _270  and  _272
REMARK  114  A    between atoms: _272  and  _273
REMARK  115  A    between atoms: _272  and  _275
REMARK  116  A    between atoms: _275  and  _276
REMARK  117  A    between atoms: _276  and  _277
REMARK  118  A    between atoms: _277  and  _278
REMARK  119  A    between atoms: _287  and  _289
REMARK  120  A    between atoms: _289  and  _290
REMARK  121  A    between atoms: _289  and  _292
REMARK  122  A    between atoms: _292  and  _293
REMARK  123  A    between atoms: _298  and  _299
REMARK  124  A    between atoms: _301  and  _303
REMARK  125  A    between atoms: _303  and  _304
REMARK  126  A    between atoms: _303  and  _306
REMARK  127  A    between atoms: _306  and  _307
REMARK  128  A    between atoms: _307  and  _308
REMARK  129  A    between atoms: _308  and  _309
REMARK  130  A    between atoms: _309  and  _310
REMARK  131  A    between atoms: _314  and  _316
REMARK  132  A    between atoms: _316  and  _317
REMARK  133  A    between atoms: _316  and  _319
REMARK  134  A    between atoms: _319  and  _320
REMARK                            x       y       z     vdW  Elec       q    Type
REMARK                         _______ _______ _______ _____ _____    ______ ____
ROOT
ATOM      1  CA  VAL A   1       5.593   9.659 -17.092  0.00  0.00    +0.133 C 
ENDROOT
BRANCH   1   2
ATOM      2  CB  VAL A   1       5.489  10.608 -15.852  0.00  0.00    +0.023 C 
ATOM      3  CG2 VAL A   1       4.050  10.649 -15.344  0.00  0.00    +0.002 C 
ATOM      4  CG1 VAL A   1       5.969  11.977 -16.157  0.00  0.00    +0.002 C 
ENDBRANCH   1   2
BRANCH   1   5
ATOM      5  N   VAL A   1       5.348   8.252 -16.737  0.00  0.00    -0.239 NA
ATOM      6  H   VAL A   1       5.213   7.960 -15.748  0.00  0.00    +0.142 HD
ENDBRANCH   1   5
BRANCH   1   7
ATOM      7  C   VAL A   1       6.942   9.821 -17.854  0.00  0.00    +0.224 C 
ATOM      8  O   VAL A   1       7.005  10.536 -18.854  0.00  0.00    -0.287 OA
ENDBRANCH   1   7
TORSDOF 3
REMARK  Name = ../refined-set-2016/3pgl/3pgl_pocket.pdb
REMARK  134 active torsions:
REMARK  status: ('A' for Active; 'I' for Inactive)
REMARK    1  A    between atoms: _1  and  _3
REMARK    2  A    between atoms: _3  and  _4
REMARK    3  A    between atoms: _3  and  _6
REMARK    4  A    between atoms: _6  and  _7
REMARK    5  A    between atoms: _10  and  _12
REMARK    6  A    between atoms: _12  and  _13
REMARK    7  A    between atoms: _12  and  _15
REMARK    8  A    between atoms: _15  and  _16
REMARK    9  A    between atoms: _19  and  _21
REMARK   10  A    between atoms: _21  and  _22
REMARK   11  A    between atoms: _21  and  _24
REMARK   12  A    between atoms: _24  and  _25
REMARK   13  A    between atoms: _28  and  _30
REMARK   14  A    between atoms: _30  and  _31
REMARK   15  A    between atoms: _30  and  _33
REMARK   16  A    between atoms: _33  and  _34
REMARK   17  A    between atoms: _34  and  _35
REMARK   18  A    between atoms: _38  and  _40
REMARK   19  A    between atoms: _40  and  _41
REMARK   20  A    between atoms: _40  and  _43
REMARK   21  A    between atoms: _43  and  _44
REMARK   22  A    between atoms: _49  and  _51
REMARK   23  A    between atoms: _51  and  _52
REMARK   24  A    between atoms: _51  and  _54
REMARK   25  A    between atoms: _54  and  _55
REMARK   26  A    between atoms: _57  and  _59
REMARK   27  A    between atoms: _59  and  _60
REMARK   28  A    between atoms: _59  and  _62
REMARK   29  A    between atoms: _62  and  _63
REMARK   30  A    between atoms: _65  and  _67
REMARK   31  A    between atoms: _67  and  _68
REMARK   32  A    between atoms: _67  and  _70
REMARK   33  A    between atoms: _70  and  _71
REMARK   34  A    between atoms: _77  and  _79
REMARK   35  A    between atoms: _79  and  _80
REMARK   36  A    between atoms: _79  and  _82
REMARK   37  A    between atoms: _82  and  _83
REMARK   38  A    between atoms: _83  and  _84
REMARK   39  A    between atoms: _84  and  _85
REMARK   40  A    between atoms: _85  and  _86
REMARK   41  A    between atoms: _90  and  _92
REMARK   42  A    between atoms: _92  and  _93
REMARK   43  A    between atoms: _92  and  _95
REMARK   44  A    between atoms: _95  and  _96
REMARK   45  A    between atoms: _100  and  _101
REMARK   46  A    between atoms: _106  and  _108
REMARK   47  A    between atoms: _108  and  _109
REMARK   48  A    between atoms: _108  and  _111
REMARK   49  A    between atoms: _114  and  _116
REMARK   50  A    between atoms: _116  and  _117
REMARK   51  A    between atoms: _116  and  _119
REMARK   52  A    between atoms: _119  and  _120
REMARK   53  A    between atoms: _120  and  _121
REMARK   54  A    between atoms: _124  and  _126
REMARK   55  A    between atoms: _126  and  _127
REMARK   56  A    between atoms: _126  and  _129
REMARK   57  A    between atoms: _129  and  _130
REMARK   58  A    between atoms: _133  and  _135
REMARK   59  A    between atoms: _135  and  _136
REMARK   60  A    between atoms: _135  and  _138
REMARK   61  A    between atoms: _138  and  _139
REMARK   62  A    between atoms: _142  and  _144
REMARK   63  A    between atoms: _144  and  _145
REMARK   64  A    between atoms: _144  and  _147
REMARK   65  A    between atoms: _150  and  _152
REMARK   66  A    between atoms: _152  and  _153
REMARK   67  A    between atoms: _152  and  _155
REMARK   68  A    between atoms: _155  and  _156
REMARK   69  A    between atoms: _161  and  _163
REMARK   70  A    between atoms: _163  and  _164
REMARK   71  A    between atoms: _163  and  _166
REMARK   72  A    between atoms: _169  and  _171
REMARK   73  A    between atoms: _171  and  _172
REMARK   74  A    between atoms: _171  and  _174
REMARK   75  A    between atoms: _174  and  _175
REMARK   76  A    between atoms: _180  and  _181
REMARK   77  A    between atoms: _183  and  _185
REMARK   78  A    between atoms: _185  and  _186
REMARK   79  A    between atoms: _185  and  _188
REMARK   80  A    between atoms: _191  and  _193
REMARK   81  A    between atoms: _193  and  _194
REMARK   82  A    between atoms: _193  and  _196
REMARK   83  A    between atoms: _196  and  _197
REMARK   84  A    between atoms: _200  and  _202
REMARK   85  A    between atoms: _202  and  _203
REMARK   86  A    between atoms: _206  and  _208
REMARK   87  A    between atoms: _208  and  _209
REMARK   88  A    between atoms: _208  and  _211
REMARK   89  A    between atoms: _211  and  _212
REMARK   90  A    between atoms: _214  and  _216
REMARK   91  A    between atoms: _216  and  _217
REMARK   92  A    between atoms: _216  and  _219
REMARK   93  A    between atoms: _219  and  _220
REMARK   94  A    between atoms: _223  and  _225
REMARK   95  A    between atoms: _225  and  _226
REMARK   96  A    between atoms: _229  and  _231
REMARK   97  A    between atoms: _231  and  _232
REMARK   98  A    between atoms: _231  and  _234
REMARK   99  A    between atoms: _234  and  _235
REMARK  100  A    between atoms: _235  and  _236
REMARK  101  A    between atoms: _236  and  _237
REMARK  102  A    between atoms: _237  and  _238
REMARK  103  A    between atoms: _242  and  _244
REMARK  104  A    between atoms: _244  and  _245
REMARK  105  A    between atoms: _244  and  _247
REMARK  106  A    between atoms: _247  and  _248
REMARK  107  A    between atoms: _253  and  _254
REMARK  108  A    between atoms: _256  and  _258
REMARK  109  A    between atoms: _258  and  _259
REMARK  110  A    between atoms: _262  and  _264
REMARK  111  A    between atoms: _264  and  _265
REMARK  112  A    between atoms: _264  and  _267
REMARK  113  A    between atoms: _270  and  _272
REMARK  114  A    between atoms: _272  and  _273
REMARK  115  A    between atoms: _272  and  _275
REMARK  116  A    between atoms: _275  and  _276
REMARK  117  A    between atoms: _276  and  _277
REMARK  118  A    between atoms: _277  and  _278
REMARK  119  A    between atoms: _287  and  _289
REMARK  120  A    between atoms: _289  and  _290
REMARK  121  A    between atoms: _289  and  _292
REMARK  122  A    between atoms: _292  and  _293
REMARK  123  A    between atoms: _298  and  _299
REMARK  124  A    between atoms: _301  and  _303
REMARK  125  A    between atoms: _303  and  _304
REMARK  126  A    between atoms: _303  and  _306
REMARK  127  A    between atoms: _306  and  _307
REMARK  128  A    between atoms: _307  and  _308
REMARK  129  A    between atoms: _308  and  _309
REMARK  130  A    between atoms: _309  and  _310
REMARK  131  A    between atoms: _314  and  _316
REMARK  132  A    between atoms: _316  and  _317
REMARK  133  A    between atoms: _316  and  _319
REMARK  134  A    between atoms: _319  and  _320
REMARK                            x       y       z     vdW  Elec       q    Type
REMARK                         _______ _______ _______ _____ _____    ______ ____
ROOT
ATOM      1  NE  ARG A   1       7.074   8.175  -1.555  0.00  0.00    -0.265 N 
ATOM      2  HE  ARG A   1       7.901   8.781  -1.381  0.00  0.00    +0.259 HD
ATOM      3  CZ  ARG A   1       5.953   8.795  -1.920  0.00  0.00    +0.342 C 
ATOM      4  NH2 ARG A   1       5.975  10.111  -2.068  0.00  0.00    -0.292 N 
ATOM      5 HH21 ARG A   1       6.855  10.639  -1.900  0.00  0.00    +0.255 HD
ATOM      6 HH22 ARG A   1       5.112  10.617  -2.352  0.00  0.00    +0.255 HD
ATOM      7  NH1 ARG A   1       4.830   8.129  -2.155  0.00  0.00    -0.292 N 
ATOM      8 HH11 ARG A   1       4.809   7.094  -2.056  0.00  0.00    +0.255 HD
ATOM      9 HH12 ARG A   1       3.971   8.642  -2.439  0.00  0.00    +0.255 HD
ENDROOT
BRANCH   1  10
ATOM     10  CD  ARG A   1       7.271   6.734  -1.371  0.00  0.00    +0.174 C 
BRANCH  10  11
ATOM     11  CG  ARG A   1       8.806   6.475  -1.605  0.00  0.00    +0.045 C 
BRANCH  11  12
ATOM     12  CB  ARG A   1       9.204   6.410  -3.154  0.00  0.00    +0.029 C 
BRANCH  12  13
ATOM     13  CA  ARG A   1      10.720   6.558  -3.527  0.00  0.00    +0.133 C 
BRANCH  13  14
ATOM     14  N   ARG A   1      10.978   6.305  -4.948  0.00  0.00    -0.239 NA
ATOM     15  H   ARG A   1      10.188   5.988  -5.545  0.00  0.00    +0.142 HD
ENDBRANCH  13  14
BRANCH  13  16
ATOM     16  C   ARG A   1      11.625   5.719  -2.640  0.00  0.00    +0.224 C 
ATOM     17  O   ARG A   1      12.267   6.292  -1.797  0.00  0.00    -0.287 OA
ENDBRANCH  13  16
ENDBRANCH  12  13
ENDBRANCH  11  12
ENDBRANCH  10  11
ENDBRANCH   1  10
TORSDOF 6
REMARK  Name = ../refined-set-2016/3pgl/3pgl_pocket.pdb
REMARK  134 active torsions:
REMARK  status: ('A' for Active; 'I' for Inactive)
REMARK    1  A    between atoms: _1  and  _3
REMARK    2  A    between atoms: _3  and  _4
REMARK    3  A    between atoms: _3  and  _6
REMARK    4  A    between atoms: _6  and  _7
REMARK    5  A    between atoms: _10  and  _12
REMARK    6  A    between atoms: _12  and  _13
REMARK    7  A    between atoms: _12  and  _15
REMARK    8  A    between atoms: _15  and  _16
REMARK    9  A    between atoms: _19  and  _21
REMARK   10  A    between atoms: _21  and  _22
REMARK   11  A    between atoms: _21  and  _24
REMARK   12  A    between atoms: _24  and  _25
REMARK   13  A    between atoms: _28  and  _30
REMARK   14  A    between atoms: _30  and  _31
REMARK   15  A    between atoms: _30  and  _33
REMARK   16  A    between atoms: _33  and  _34
REMARK   17  A    between atoms: _34  and  _35
REMARK   18  A    between atoms: _38  and  _40
REMARK   19  A    between atoms: _40  and  _41
REMARK   20  A    between atoms: _40  and  _43
REMARK   21  A    between atoms: _43  and  _44
REMARK   22  A    between atoms: _49  and  _51
REMARK   23  A    between atoms: _51  and  _52
REMARK   24  A    between atoms: _51  and  _54
REMARK   25  A    between atoms: _54  and  _55
REMARK   26  A    between atoms: _57  and  _59
REMARK   27  A    between atoms: _59  and  _60
REMARK   28  A    between atoms: _59  and  _62
REMARK   29  A    between atoms: _62  and  _63
REMARK   30  A    between atoms: _65  and  _67
REMARK   31  A    between atoms: _67  and  _68
REMARK   32  A    between atoms: _67  and  _70
REMARK   33  A    between atoms: _70  and  _71
REMARK   34  A    between atoms: _77  and  _79
REMARK   35  A    between atoms: _79  and  _80
REMARK   36  A    between atoms: _79  and  _82
REMARK   37  A    between atoms: _82  and  _83
REMARK   38  A    between atoms: _83  and  _84
REMARK   39  A    between atoms: _84  and  _85
REMARK   40  A    between atoms: _85  and  _86
REMARK   41  A    between atoms: _90  and  _92
REMARK   42  A    between atoms: _92  and  _93
REMARK   43  A    between atoms: _92  and  _95
REMARK   44  A    between atoms: _95  and  _96
REMARK   45  A    between atoms: _100  and  _101
REMARK   46  A    between atoms: _106  and  _108
REMARK   47  A    between atoms: _108  and  _109
REMARK   48  A    between atoms: _108  and  _111
REMARK   49  A    between atoms: _114  and  _116
REMARK   50  A    between atoms: _116  and  _117
REMARK   51  A    between atoms: _116  and  _119
REMARK   52  A    between atoms: _119  and  _120
REMARK   53  A    between atoms: _120  and  _121
REMARK   54  A    between atoms: _124  and  _126
REMARK   55  A    between atoms: _126  and  _127
REMARK   56  A    between atoms: _126  and  _129
REMARK   57  A    between atoms: _129  and  _130
REMARK   58  A    between atoms: _133  and  _135
REMARK   59  A    between atoms: _135  and  _136
REMARK   60  A    between atoms: _135  and  _138
REMARK   61  A    between atoms: _138  and  _139
REMARK   62  A    between atoms: _142  and  _144
REMARK   63  A    between atoms: _144  and  _145
REMARK   64  A    between atoms: _144  and  _147
REMARK   65  A    between atoms: _150  and  _152
REMARK   66  A    between atoms: _152  and  _153
REMARK   67  A    between atoms: _152  and  _155
REMARK   68  A    between atoms: _155  and  _156
REMARK   69  A    between atoms: _161  and  _163
REMARK   70  A    between atoms: _163  and  _164
REMARK   71  A    between atoms: _163  and  _166
REMARK   72  A    between atoms: _169  and  _171
REMARK   73  A    between atoms: _171  and  _172
REMARK   74  A    between atoms: _171  and  _174
REMARK   75  A    between atoms: _174  and  _175
REMARK   76  A    between atoms: _180  and  _181
REMARK   77  A    between atoms: _183  and  _185
REMARK   78  A    between atoms: _185  and  _186
REMARK   79  A    between atoms: _185  and  _188
REMARK   80  A    between atoms: _191  and  _193
REMARK   81  A    between atoms: _193  and  _194
REMARK   82  A    between atoms: _193  and  _196
REMARK   83  A    between atoms: _196  and  _197
REMARK   84  A    between atoms: _200  and  _202
REMARK   85  A    between atoms: _202  and  _203
REMARK   86  A    between atoms: _206  and  _208
REMARK   87  A    between atoms: _208  and  _209
REMARK   88  A    between atoms: _208  and  _211
REMARK   89  A    between atoms: _211  and  _212
REMARK   90  A    between atoms: _214  and  _216
REMARK   91  A    between atoms: _216  and  _217
REMARK   92  A    between atoms: _216  and  _219
REMARK   93  A    between atoms: _219  and  _220
REMARK   94  A    between atoms: _223  and  _225
REMARK   95  A    between atoms: _225  and  _226
REMARK   96  A    between atoms: _229  and  _231
REMARK   97  A    between atoms: _231  and  _232
REMARK   98  A    between atoms: _231  and  _234
REMARK   99  A    between atoms: _234  and  _235
REMARK  100  A    between atoms: _235  and  _236
REMARK  101  A    between atoms: _236  and  _237
REMARK  102  A    between atoms: _237  and  _238
REMARK  103  A    between atoms: _242  and  _244
REMARK  104  A    between atoms: _244  and  _245
REMARK  105  A    between atoms: _244  and  _247
REMARK  106  A    between atoms: _247  and  _248
REMARK  107  A    between atoms: _253  and  _254
REMARK  108  A    between atoms: _256  and  _258
REMARK  109  A    between atoms: _258  and  _259
REMARK  110  A    between atoms: _262  and  _264
REMARK  111  A    between atoms: _264  and  _265
REMARK  112  A    between atoms: _264  and  _267
REMARK  113  A    between atoms: _270  and  _272
REMARK  114  A    between atoms: _272  and  _273
REMARK  115  A    between atoms: _272  and  _275
REMARK  116  A    between atoms: _275  and  _276
REMARK  117  A    between atoms: _276  and  _277
REMARK  118  A    between atoms: _277  and  _278
REMARK  119  A    between atoms: _287  and  _289
REMARK  120  A    between atoms: _289  and  _290
REMARK  121  A    between atoms: _289  and  _292
REMARK  122  A    between atoms: _292  and  _293
REMARK  123  A    between atoms: _298  and  _299
REMARK  124  A    between atoms: _301  and  _303
REMARK  125  A    between atoms: _303  and  _304
REMARK  126  A    between atoms: _303  and  _306
REMARK  127  A    between atoms: _306  and  _307
REMARK  128  A    between atoms: _307  and  _308
REMARK  129  A    between atoms: _308  and  _309
REMARK  130  A    between atoms: _309  and  _310
REMARK  131  A    between atoms: _314  and  _316
REMARK  132  A    between atoms: _316  and  _317
REMARK  133  A    between atoms: _316  and  _319
REMARK  134  A    between atoms: _319  and  _320
REMARK                            x       y       z     vdW  Elec       q    Type
REMARK                         _______ _______ _______ _____ _____    ______ ____
ROOT
ATOM      1  CG  TYR A   1      10.164  11.727   0.416  0.00  0.00    -0.020 A 
ATOM      2  CD2 TYR A   1      10.031  10.350   0.737  0.00  0.00    -0.001 A 
ATOM      3  CE2 TYR A   1       8.774   9.800   1.014  0.00  0.00    +0.036 A 
ATOM      4  CZ  TYR A   1       7.634  10.636   0.973  0.00  0.00    +0.134 A 
ATOM      5  CE1 TYR A   1       7.741  12.017   0.669  0.00  0.00    +0.036 A 
ATOM      6  CD1 TYR A   1       9.006  12.545   0.379  0.00  0.00    -0.001 A 
ENDROOT
BRANCH   4   7
ATOM      7  OH  TYR A   1       6.373  10.112   1.234  0.00  0.00    -0.506 OA
ATOM      8  HH  TYR A   1       6.453   9.145   1.429  0.00  0.00    +0.292 HD
ENDBRANCH   4   7
BRANCH   1   9
ATOM      9  CB  TYR A   1      11.520  12.320   0.089  0.00  0.00    +0.051 C 
BRANCH   9  10
ATOM     10  CA  TYR A   1      12.375  12.746   1.276  0.00  0.00    +0.137 C 
BRANCH  10  11
ATOM     11  N   TYR A   1      11.680  13.697   2.150  0.00  0.00    -0.239 NA
ATOM     12  H   TYR A   1      11.006  14.375   1.740  0.00  0.00    +0.142 HD
ENDBRANCH  10  11
BRANCH  10  13
ATOM     13  C   TYR A   1      13.673  13.400   0.788  0.00  0.00    +0.224 C 
ATOM     14  O   TYR A   1      13.669  14.355   0.017  0.00  0.00    -0.287 OA
ENDBRANCH  10  13
ENDBRANCH   9  10
ENDBRANCH   1   9
TORSDOF 5
REMARK  Name = ../refined-set-2016/3pgl/3pgl_pocket.pdb
REMARK  134 active torsions:
REMARK  status: ('A' for Active; 'I' for Inactive)
REMARK    1  A    between atoms: _1  and  _3
REMARK    2  A    between atoms: _3  and  _4
REMARK    3  A    between atoms: _3  and  _6
REMARK    4  A    between atoms: _6  and  _7
REMARK    5  A    between atoms: _10  and  _12
REMARK    6  A    between atoms: _12  and  _13
REMARK    7  A    between atoms: _12  and  _15
REMARK    8  A    between atoms: _15  and  _16
REMARK    9  A    between atoms: _19  and  _21
REMARK   10  A    between atoms: _21  and  _22
REMARK   11  A    between atoms: _21  and  _24
REMARK   12  A    between atoms: _24  and  _25
REMARK   13  A    between atoms: _28  and  _30
REMARK   14  A    between atoms: _30  and  _31
REMARK   15  A    between atoms: _30  and  _33
REMARK   16  A    between atoms: _33  and  _34
REMARK   17  A    between atoms: _34  and  _35
REMARK   18  A    between atoms: _38  and  _40
REMARK   19  A    between atoms: _40  and  _41
REMARK   20  A    between atoms: _40  and  _43
REMARK   21  A    between atoms: _43  and  _44
REMARK   22  A    between atoms: _49  and  _51
REMARK   23  A    between atoms: _51  and  _52
REMARK   24  A    between atoms: _51  and  _54
REMARK   25  A    between atoms: _54  and  _55
REMARK   26  A    between atoms: _57  and  _59
REMARK   27  A    between atoms: _59  and  _60
REMARK   28  A    between atoms: _59  and  _62
REMARK   29  A    between atoms: _62  and  _63
REMARK   30  A    between atoms: _65  and  _67
REMARK   31  A    between atoms: _67  and  _68
REMARK   32  A    between atoms: _67  and  _70
REMARK   33  A    between atoms: _70  and  _71
REMARK   34  A    between atoms: _77  and  _79
REMARK   35  A    between atoms: _79  and  _80
REMARK   36  A    between atoms: _79  and  _82
REMARK   37  A    between atoms: _82  and  _83
REMARK   38  A    between atoms: _83  and  _84
REMARK   39  A    between atoms: _84  and  _85
REMARK   40  A    between atoms: _85  and  _86
REMARK   41  A    between atoms: _90  and  _92
REMARK   42  A    between atoms: _92  and  _93
REMARK   43  A    between atoms: _92  and  _95
REMARK   44  A    between atoms: _95  and  _96
REMARK   45  A    between atoms: _100  and  _101
REMARK   46  A    between atoms: _106  and  _108
REMARK   47  A    between atoms: _108  and  _109
REMARK   48  A    between atoms: _108  and  _111
REMARK   49  A    between atoms: _114  and  _116
REMARK   50  A    between atoms: _116  and  _117
REMARK   51  A    between atoms: _116  and  _119
REMARK   52  A    between atoms: _119  and  _120
REMARK   53  A    between atoms: _120  and  _121
REMARK   54  A    between atoms: _124  and  _126
REMARK   55  A    between atoms: _126  and  _127
REMARK   56  A    between atoms: _126  and  _129
REMARK   57  A    between atoms: _129  and  _130
REMARK   58  A    between atoms: _133  and  _135
REMARK   59  A    between atoms: _135  and  _136
REMARK   60  A    between atoms: _135  and  _138
REMARK   61  A    between atoms: _138  and  _139
REMARK   62  A    between atoms: _142  and  _144
REMARK   63  A    between atoms: _144  and  _145
REMARK   64  A    between atoms: _144  and  _147
REMARK   65  A    between atoms: _150  and  _152
REMARK   66  A    between atoms: _152  and  _153
REMARK   67  A    between atoms: _152  and  _155
REMARK   68  A    between atoms: _155  and  _156
REMARK   69  A    between atoms: _161  and  _163
REMARK   70  A    between atoms: _163  and  _164
REMARK   71  A    between atoms: _163  and  _166
REMARK   72  A    between atoms: _169  and  _171
REMARK   73  A    between atoms: _171  and  _172
REMARK   74  A    between atoms: _171  and  _174
REMARK   75  A    between atoms: _174  and  _175
REMARK   76  A    between atoms: _180  and  _181
REMARK   77  A    between atoms: _183  and  _185
REMARK   78  A    between atoms: _185  and  _186
REMARK   79  A    between atoms: _185  and  _188
REMARK   80  A    between atoms: _191  and  _193
REMARK   81  A    between atoms: _193  and  _194
REMARK   82  A    between atoms: _193  and  _196
REMARK   83  A    between atoms: _196  and  _197
REMARK   84  A    between atoms: _200  and  _202
REMARK   85  A    between atoms: _202  and  _203
REMARK   86  A    between atoms: _206  and  _208
REMARK   87  A    between atoms: _208  and  _209
REMARK   88  A    between atoms: _208  and  _211
REMARK   89  A    between atoms: _211  and  _212
REMARK   90  A    between atoms: _214  and  _216
REMARK   91  A    between atoms: _216  and  _217
REMARK   92  A    between atoms: _216  and  _219
REMARK   93  A    between atoms: _219  and  _220
REMARK   94  A    between atoms: _223  and  _225
REMARK   95  A    between atoms: _225  and  _226
REMARK   96  A    between atoms: _229  and  _231
REMARK   97  A    between atoms: _231  and  _232
REMARK   98  A    between atoms: _231  and  _234
REMARK   99  A    between atoms: _234  and  _235
REMARK  100  A    between atoms: _235  and  _236
REMARK  101  A    between atoms: _236  and  _237
REMARK  102  A    between atoms: _237  and  _238
REMARK  103  A    between atoms: _242  and  _244
REMARK  104  A    between atoms: _244  and  _245
REMARK  105  A    between atoms: _244  and  _247
REMARK  106  A    between atoms: _247  and  _248
REMARK  107  A    between atoms: _253  and  _254
REMARK  108  A    between atoms: _256  and  _258
REMARK  109  A    between atoms: _258  and  _259
REMARK  110  A    between atoms: _262  and  _264
REMARK  111  A    between atoms: _264  and  _265
REMARK  112  A    between atoms: _264  and  _267
REMARK  113  A    between atoms: _270  and  _272
REMARK  114  A    between atoms: _272  and  _273
REMARK  115  A    between atoms: _272  and  _275
REMARK  116  A    between atoms: _275  and  _276
REMARK  117  A    between atoms: _276  and  _277
REMARK  118  A    between atoms: _277  and  _278
REMARK  119  A    between atoms: _287  and  _289
REMARK  120  A    between atoms: _289  and  _290
REMARK  121  A    between atoms: _289  and  _292
REMARK  122  A    between atoms: _292  and  _293
REMARK  123  A    between atoms: _298  and  _299
REMARK  124  A    between atoms: _301  and  _303
REMARK  125  A    between atoms: _303  and  _304
REMARK  126  A    between atoms: _303  and  _306
REMARK  127  A    between atoms: _306  and  _307
REMARK  128  A    between atoms: _307  and  _308
REMARK  129  A    between atoms: _308  and  _309
REMARK  130  A    between atoms: _309  and  _310
REMARK  131  A    between atoms: _314  and  _316
REMARK  132  A    between atoms: _316  and  _317
REMARK  133  A    between atoms: _316  and  _319
REMARK  134  A    between atoms: _319  and  _320
REMARK                            x       y       z     vdW  Elec       q    Type
REMARK                         _______ _______ _______ _____ _____    ______ ____
ROOT
ATOM      1  CG  LYS A   1      16.467  12.772  -3.980  0.00  0.00    -0.000 C 
ENDROOT
BRANCH   1   2
ATOM      2  CB  LYS A   1      17.843  13.195  -3.419  0.00  0.00    +0.025 C 
BRANCH   2   3
ATOM      3  CA  LYS A   1      18.098  12.543  -2.064  0.00  0.00    +0.133 C 
BRANCH   3   4
ATOM      4  N   LYS A   1      17.259  13.183  -1.053  0.00  0.00    -0.239 NA
ATOM      5  H   LYS A   1      17.044  14.196  -1.148  0.00  0.00    +0.142 HD
ENDBRANCH   3   4
BRANCH   3   6
ATOM      6  C   LYS A   1      19.517  12.613  -1.570  0.00  0.00    +0.224 C 
ATOM      7  O   LYS A   1      20.139  13.674  -1.529  0.00  0.00    -0.287 OA
ENDBRANCH   3   6
ENDBRANCH   2   3
ENDBRANCH   1   2
BRANCH   1   8
ATOM      8  CD  LYS A   1      15.835  13.845  -4.805  0.00  0.00    -0.024 C 
BRANCH   8   9
ATOM      9  CE  LYS A   1      14.315  13.613  -4.969  0.00  0.00    -0.086 C 
BRANCH   9  10
ATOM     10  NZ  LYS A   1      13.588  14.727  -5.761  0.00  0.00    +0.380 N 
ATOM     11  HZ1 LYS A   1      13.709  15.635  -5.269  0.00  0.00    -0.089 HD
ATOM     12  HZ2 LYS A   1      12.575  14.499  -5.827  0.00  0.00    -0.089 HD
ATOM     13  HZ3 LYS A   1      13.993  14.792  -6.717  0.00  0.00    -0.089 HD
ENDBRANCH   9  10
ENDBRANCH   8   9
ENDBRANCH   1   8
TORSDOF 7
REMARK  Name = ../refined-set-2016/3pgl/3pgl_pocket.pdb
REMARK  134 active torsions:
REMARK  status: ('A' for Active; 'I' for Inactive)
REMARK    1  A    between atoms: _1  and  _3
REMARK    2  A    between atoms: _3  and  _4
REMARK    3  A    between atoms: _3  and  _6
REMARK    4  A    between atoms: _6  and  _7
REMARK    5  A    between atoms: _10  and  _12
REMARK    6  A    between atoms: _12  and  _13
REMARK    7  A    between atoms: _12  and  _15
REMARK    8  A    between atoms: _15  and  _16
REMARK    9  A    between atoms: _19  and  _21
REMARK   10  A    between atoms: _21  and  _22
REMARK   11  A    between atoms: _21  and  _24
REMARK   12  A    between atoms: _24  and  _25
REMARK   13  A    between atoms: _28  and  _30
REMARK   14  A    between atoms: _30  and  _31
REMARK   15  A    between atoms: _30  and  _33
REMARK   16  A    between atoms: _33  and  _34
REMARK   17  A    between atoms: _34  and  _35
REMARK   18  A    between atoms: _38  and  _40
REMARK   19  A    between atoms: _40  and  _41
REMARK   20  A    between atoms: _40  and  _43
REMARK   21  A    between atoms: _43  and  _44
REMARK   22  A    between atoms: _49  and  _51
REMARK   23  A    between atoms: _51  and  _52
REMARK   24  A    between atoms: _51  and  _54
REMARK   25  A    between atoms: _54  and  _55
REMARK   26  A    between atoms: _57  and  _59
REMARK   27  A    between atoms: _59  and  _60
REMARK   28  A    between atoms: _59  and  _62
REMARK   29  A    between atoms: _62  and  _63
REMARK   30  A    between atoms: _65  and  _67
REMARK   31  A    between atoms: _67  and  _68
REMARK   32  A    between atoms: _67  and  _70
REMARK   33  A    between atoms: _70  and  _71
REMARK   34  A    between atoms: _77  and  _79
REMARK   35  A    between atoms: _79  and  _80
REMARK   36  A    between atoms: _79  and  _82
REMARK   37  A    between atoms: _82  and  _83
REMARK   38  A    between atoms: _83  and  _84
REMARK   39  A    between atoms: _84  and  _85
REMARK   40  A    between atoms: _85  and  _86
REMARK   41  A    between atoms: _90  and  _92
REMARK   42  A    between atoms: _92  and  _93
REMARK   43  A    between atoms: _92  and  _95
REMARK   44  A    between atoms: _95  and  _96
REMARK   45  A    between atoms: _100  and  _101
REMARK   46  A    between atoms: _106  and  _108
REMARK   47  A    between atoms: _108  and  _109
REMARK   48  A    between atoms: _108  and  _111
REMARK   49  A    between atoms: _114  and  _116
REMARK   50  A    between atoms: _116  and  _117
REMARK   51  A    between atoms: _116  and  _119
REMARK   52  A    between atoms: _119  and  _120
REMARK   53  A    between atoms: _120  and  _121
REMARK   54  A    between atoms: _124  and  _126
REMARK   55  A    between atoms: _126  and  _127
REMARK   56  A    between atoms: _126  and  _129
REMARK   57  A    between atoms: _129  and  _130
REMARK   58  A    between atoms: _133  and  _135
REMARK   59  A    between atoms: _135  and  _136
REMARK   60  A    between atoms: _135  and  _138
REMARK   61  A    between atoms: _138  and  _139
REMARK   62  A    between atoms: _142  and  _144
REMARK   63  A    between atoms: _144  and  _145
REMARK   64  A    between atoms: _144  and  _147
REMARK   65  A    between atoms: _150  and  _152
REMARK   66  A    between atoms: _152  and  _153
REMARK   67  A    between atoms: _152  and  _155
REMARK   68  A    between atoms: _155  and  _156
REMARK   69  A    between atoms: _161  and  _163
REMARK   70  A    between atoms: _163  and  _164
REMARK   71  A    between atoms: _163  and  _166
REMARK   72  A    between atoms: _169  and  _171
REMARK   73  A    between atoms: _171  and  _172
REMARK   74  A    between atoms: _171  and  _174
REMARK   75  A    between atoms: _174  and  _175
REMARK   76  A    between atoms: _180  and  _181
REMARK   77  A    between atoms: _183  and  _185
REMARK   78  A    between atoms: _185  and  _186
REMARK   79  A    between atoms: _185  and  _188
REMARK   80  A    between atoms: _191  and  _193
REMARK   81  A    between atoms: _193  and  _194
REMARK   82  A    between atoms: _193  and  _196
REMARK   83  A    between atoms: _196  and  _197
REMARK   84  A    between atoms: _200  and  _202
REMARK   85  A    between atoms: _202  and  _203
REMARK   86  A    between atoms: _206  and  _208
REMARK   87  A    between atoms: _208  and  _209
REMARK   88  A    between atoms: _208  and  _211
REMARK   89  A    between atoms: _211  and  _212
REMARK   90  A    between atoms: _214  and  _216
REMARK   91  A    between atoms: _216  and  _217
REMARK   92  A    between atoms: _216  and  _219
REMARK   93  A    between atoms: _219  and  _220
REMARK   94  A    between atoms: _223  and  _225
REMARK   95  A    between atoms: _225  and  _226
REMARK   96  A    between atoms: _229  and  _231
REMARK   97  A    between atoms: _231  and  _232
REMARK   98  A    between atoms: _231  and  _234
REMARK   99  A    between atoms: _234  and  _235
REMARK  100  A    between atoms: _235  and  _236
REMARK  101  A    between atoms: _236  and  _237
REMARK  102  A    between atoms: _237  and  _238
REMARK  103  A    between atoms: _242  and  _244
REMARK  104  A    between atoms: _244  and  _245
REMARK  105  A    between atoms: _244  and  _247
REMARK  106  A    between atoms: _247  and  _248
REMARK  107  A    between atoms: _253  and  _254
REMARK  108  A    between atoms: _256  and  _258
REMARK  109  A    between atoms: _258  and  _259
REMARK  110  A    between atoms: _262  and  _264
REMARK  111  A    between atoms: _264  and  _265
REMARK  112  A    between atoms: _264  and  _267
REMARK  113  A    between atoms: _270  and  _272
REMARK  114  A    between atoms: _272  and  _273
REMARK  115  A    between atoms: _272  and  _275
REMARK  116  A    between atoms: _275  and  _276
REMARK  117  A    between atoms: _276  and  _277
REMARK  118  A    between atoms: _277  and  _278
REMARK  119  A    between atoms: _287  and  _289
REMARK  120  A    between atoms: _289  and  _290
REMARK  121  A    between atoms: _289  and  _292
REMARK  122  A    between atoms: _292  and  _293
REMARK  123  A    between atoms: _298  and  _299
REMARK  124  A    between atoms: _301  and  _303
REMARK  125  A    between atoms: _303  and  _304
REMARK  126  A    between atoms: _303  and  _306
REMARK  127  A    between atoms: _306  and  _307
REMARK  128  A    between atoms: _307  and  _308
REMARK  129  A    between atoms: _308  and  _309
REMARK  130  A    between atoms: _309  and  _310
REMARK  131  A    between atoms: _314  and  _316
REMARK  132  A    between atoms: _316  and  _317
REMARK  133  A    between atoms: _316  and  _319
REMARK  134  A    between atoms: _319  and  _320
REMARK                            x       y       z     vdW  Elec       q    Type
REMARK                         _______ _______ _______ _____ _____    ______ ____
ROOT
ATOM      1  CA  SER A   1      12.272  21.333  -3.139  0.00  0.00    +0.163 C 
ENDROOT
BRANCH   1   2
ATOM      2  N   SER A   1      12.611  21.580  -4.487  0.00  0.00    -0.237 NA
ATOM      3  H   SER A   1      13.328  20.989  -4.953  0.00  0.00    +0.142 HD
ENDBRANCH   1   2
BRANCH   1   4
ATOM      4  C   SER A   1      13.539  21.285  -2.329  0.00  0.00    +0.227 C 
ATOM      5  O   SER A   1      14.233  20.271  -2.341  0.00  0.00    -0.287 OA
ENDBRANCH   1   4
BRANCH   1   6
ATOM      6  CB  SER A   1      11.549  19.985  -3.167  0.00  0.00    +0.162 C 
BRANCH   6   7
ATOM      7  OG  SER A   1      11.114  19.602  -1.911  0.00  0.00    -0.380 OA
ATOM      8  H   SER A   1      10.654  18.728  -1.975  0.00  0.00    +0.211 HD
ENDBRANCH   6   7
ENDBRANCH   1   6
TORSDOF 4
REMARK  Name = ../refined-set-2016/3pgl/3pgl_pocket.pdb
REMARK  134 active torsions:
REMARK  status: ('A' for Active; 'I' for Inactive)
REMARK    1  A    between atoms: _1  and  _3
REMARK    2  A    between atoms: _3  and  _4
REMARK    3  A    between atoms: _3  and  _6
REMARK    4  A    between atoms: _6  and  _7
REMARK    5  A    between atoms: _10  and  _12
REMARK    6  A    between atoms: _12  and  _13
REMARK    7  A    between atoms: _12  and  _15
REMARK    8  A    between atoms: _15  and  _16
REMARK    9  A    between atoms: _19  and  _21
REMARK   10  A    between atoms: _21  and  _22
REMARK   11  A    between atoms: _21  and  _24
REMARK   12  A    between atoms: _24  and  _25
REMARK   13  A    between atoms: _28  and  _30
REMARK   14  A    between atoms: _30  and  _31
REMARK   15  A    between atoms: _30  and  _33
REMARK   16  A    between atoms: _33  and  _34
REMARK   17  A    between atoms: _34  and  _35
REMARK   18  A    between atoms: _38  and  _40
REMARK   19  A    between atoms: _40  and  _41
REMARK   20  A    between atoms: _40  and  _43
REMARK   21  A    between atoms: _43  and  _44
REMARK   22  A    between atoms: _49  and  _51
REMARK   23  A    between atoms: _51  and  _52
REMARK   24  A    between atoms: _51  and  _54
REMARK   25  A    between atoms: _54  and  _55
REMARK   26  A    between atoms: _57  and  _59
REMARK   27  A    between atoms: _59  and  _60
REMARK   28  A    between atoms: _59  and  _62
REMARK   29  A    between atoms: _62  and  _63
REMARK   30  A    between atoms: _65  and  _67
REMARK   31  A    between atoms: _67  and  _68
REMARK   32  A    between atoms: _67  and  _70
REMARK   33  A    between atoms: _70  and  _71
REMARK   34  A    between atoms: _77  and  _79
REMARK   35  A    between atoms: _79  and  _80
REMARK   36  A    between atoms: _79  and  _82
REMARK   37  A    between atoms: _82  and  _83
REMARK   38  A    between atoms: _83  and  _84
REMARK   39  A    between atoms: _84  and  _85
REMARK   40  A    between atoms: _85  and  _86
REMARK   41  A    between atoms: _90  and  _92
REMARK   42  A    between atoms: _92  and  _93
REMARK   43  A    between atoms: _92  and  _95
REMARK   44  A    between atoms: _95  and  _96
REMARK   45  A    between atoms: _100  and  _101
REMARK   46  A    between atoms: _106  and  _108
REMARK   47  A    between atoms: _108  and  _109
REMARK   48  A    between atoms: _108  and  _111
REMARK   49  A    between atoms: _114  and  _116
REMARK   50  A    between atoms: _116  and  _117
REMARK   51  A    between atoms: _116  and  _119
REMARK   52  A    between atoms: _119  and  _120
REMARK   53  A    between atoms: _120  and  _121
REMARK   54  A    between atoms: _124  and  _126
REMARK   55  A    between atoms: _126  and  _127
REMARK   56  A    between atoms: _126  and  _129
REMARK   57  A    between atoms: _129  and  _130
REMARK   58  A    between atoms: _133  and  _135
REMARK   59  A    between atoms: _135  and  _136
REMARK   60  A    between atoms: _135  and  _138
REMARK   61  A    between atoms: _138  and  _139
REMARK   62  A    between atoms: _142  and  _144
REMARK   63  A    between atoms: _144  and  _145
REMARK   64  A    between atoms: _144  and  _147
REMARK   65  A    between atoms: _150  and  _152
REMARK   66  A    between atoms: _152  and  _153
REMARK   67  A    between atoms: _152  and  _155
REMARK   68  A    between atoms: _155  and  _156
REMARK   69  A    between atoms: _161  and  _163
REMARK   70  A    between atoms: _163  and  _164
REMARK   71  A    between atoms: _163  and  _166
REMARK   72  A    between atoms: _169  and  _171
REMARK   73  A    between atoms: _171  and  _172
REMARK   74  A    between atoms: _171  and  _174
REMARK   75  A    between atoms: _174  and  _175
REMARK   76  A    between atoms: _180  and  _181
REMARK   77  A    between atoms: _183  and  _185
REMARK   78  A    between atoms: _185  and  _186
REMARK   79  A    between atoms: _185  and  _188
REMARK   80  A    between atoms: _191  and  _193
REMARK   81  A    between atoms: _193  and  _194
REMARK   82  A    between atoms: _193  and  _196
REMARK   83  A    between atoms: _196  and  _197
REMARK   84  A    between atoms: _200  and  _202
REMARK   85  A    between atoms: _202  and  _203
REMARK   86  A    between atoms: _206  and  _208
REMARK   87  A    between atoms: _208  and  _209
REMARK   88  A    between atoms: _208  and  _211
REMARK   89  A    between atoms: _211  and  _212
REMARK   90  A    between atoms: _214  and  _216
REMARK   91  A    between atoms: _216  and  _217
REMARK   92  A    between atoms: _216  and  _219
REMARK   93  A    between atoms: _219  and  _220
REMARK   94  A    between atoms: _223  and  _225
REMARK   95  A    between atoms: _225  and  _226
REMARK   96  A    between atoms: _229  and  _231
REMARK   97  A    between atoms: _231  and  _232
REMARK   98  A    between atoms: _231  and  _234
REMARK   99  A    between atoms: _234  and  _235
REMARK  100  A    between atoms: _235  and  _236
REMARK  101  A    between atoms: _236  and  _237
REMARK  102  A    between atoms: _237  and  _238
REMARK  103  A    between atoms: _242  and  _244
REMARK  104  A    between atoms: _244  and  _245
REMARK  105  A    between atoms: _244  and  _247
REMARK  106  A    between atoms: _247  and  _248
REMARK  107  A    between atoms: _253  and  _254
REMARK  108  A    between atoms: _256  and  _258
REMARK  109  A    between atoms: _258  and  _259
REMARK  110  A    between atoms: _262  and  _264
REMARK  111  A    between atoms: _264  and  _265
REMARK  112  A    between atoms: _264  and  _267
REMARK  113  A    between atoms: _270  and  _272
REMARK  114  A    between atoms: _272  and  _273
REMARK  115  A    between atoms: _272  and  _275
REMARK  116  A    between atoms: _275  and  _276
REMARK  117  A    between atoms: _276  and  _277
REMARK  118  A    between atoms: _277  and  _278
REMARK  119  A    between atoms: _287  and  _289
REMARK  120  A    between atoms: _289  and  _290
REMARK  121  A    between atoms: _289  and  _292
REMARK  122  A    between atoms: _292  and  _293
REMARK  123  A    between atoms: _298  and  _299
REMARK  124  A    between atoms: _301  and  _303
REMARK  125  A    between atoms: _303  and  _304
REMARK  126  A    between atoms: _303  and  _306
REMARK  127  A    between atoms: _306  and  _307
REMARK  128  A    between atoms: _307  and  _308
REMARK  129  A    between atoms: _308  and  _309
REMARK  130  A    between atoms: _309  and  _310
REMARK  131  A    between atoms: _314  and  _316
REMARK  132  A    between atoms: _316  and  _317
REMARK  133  A    between atoms: _316  and  _319
REMARK  134  A    between atoms: _319  and  _320
REMARK                            x       y       z     vdW  Elec       q    Type
REMARK                         _______ _______ _______ _____ _____    ______ ____
ROOT
ATOM      1 MG   UNL     1       9.534  18.115  -6.739  0.00  0.00    +0.000 Mg
ATOM      2  O   UNL     1      10.367  17.820  -5.084  0.00  0.00    +0.000 OA
ATOM      3  O   UNL     1       8.977  16.325  -6.522  0.00  0.00    +0.000 OA
ENDROOT
TORSDOF 0
REMARK  Name = ../refined-set-2016/3pgl/3pgl_pocket.pdb
REMARK  134 active torsions:
REMARK  status: ('A' for Active; 'I' for Inactive)
REMARK    1  A    between atoms: _1  and  _3
REMARK    2  A    between atoms: _3  and  _4
REMARK    3  A    between atoms: _3  and  _6
REMARK    4  A    between atoms: _6  and  _7
REMARK    5  A    between atoms: _10  and  _12
REMARK    6  A    between atoms: _12  and  _13
REMARK    7  A    between atoms: _12  and  _15
REMARK    8  A    between atoms: _15  and  _16
REMARK    9  A    between atoms: _19  and  _21
REMARK   10  A    between atoms: _21  and  _22
REMARK   11  A    between atoms: _21  and  _24
REMARK   12  A    between atoms: _24  and  _25
REMARK   13  A    between atoms: _28  and  _30
REMARK   14  A    between atoms: _30  and  _31
REMARK   15  A    between atoms: _30  and  _33
REMARK   16  A    between atoms: _33  and  _34
REMARK   17  A    between atoms: _34  and  _35
REMARK   18  A    between atoms: _38  and  _40
REMARK   19  A    between atoms: _40  and  _41
REMARK   20  A    between atoms: _40  and  _43
REMARK   21  A    between atoms: _43  and  _44
REMARK   22  A    between atoms: _49  and  _51
REMARK   23  A    between atoms: _51  and  _52
REMARK   24  A    between atoms: _51  and  _54
REMARK   25  A    between atoms: _54  and  _55
REMARK   26  A    between atoms: _57  and  _59
REMARK   27  A    between atoms: _59  and  _60
REMARK   28  A    between atoms: _59  and  _62
REMARK   29  A    between atoms: _62  and  _63
REMARK   30  A    between atoms: _65  and  _67
REMARK   31  A    between atoms: _67  and  _68
REMARK   32  A    between atoms: _67  and  _70
REMARK   33  A    between atoms: _70  and  _71
REMARK   34  A    between atoms: _77  and  _79
REMARK   35  A    between atoms: _79  and  _80
REMARK   36  A    between atoms: _79  and  _82
REMARK   37  A    between atoms: _82  and  _83
REMARK   38  A    between atoms: _83  and  _84
REMARK   39  A    between atoms: _84  and  _85
REMARK   40  A    between atoms: _85  and  _86
REMARK   41  A    between atoms: _90  and  _92
REMARK   42  A    between atoms: _92  and  _93
REMARK   43  A    between atoms: _92  and  _95
REMARK   44  A    between atoms: _95  and  _96
REMARK   45  A    between atoms: _100  and  _101
REMARK   46  A    between atoms: _106  and  _108
REMARK   47  A    between atoms: _108  and  _109
REMARK   48  A    between atoms: _108  and  _111
REMARK   49  A    between atoms: _114  and  _116
REMARK   50  A    between atoms: _116  and  _117
REMARK   51  A    between atoms: _116  and  _119
REMARK   52  A    between atoms: _119  and  _120
REMARK   53  A    between atoms: _120  and  _121
REMARK   54  A    between atoms: _124  and  _126
REMARK   55  A    between atoms: _126  and  _127
REMARK   56  A    between atoms: _126  and  _129
REMARK   57  A    between atoms: _129  and  _130
REMARK   58  A    between atoms: _133  and  _135
REMARK   59  A    between atoms: _135  and  _136
REMARK   60  A    between atoms: _135  and  _138
REMARK   61  A    between atoms: _138  and  _139
REMARK   62  A    between atoms: _142  and  _144
REMARK   63  A    between atoms: _144  and  _145
REMARK   64  A    between atoms: _144  and  _147
REMARK   65  A    between atoms: _150  and  _152
REMARK   66  A    between atoms: _152  and  _153
REMARK   67  A    between atoms: _152  and  _155
REMARK   68  A    between atoms: _155  and  _156
REMARK   69  A    between atoms: _161  and  _163
REMARK   70  A    between atoms: _163  and  _164
REMARK   71  A    between atoms: _163  and  _166
REMARK   72  A    between atoms: _169  and  _171
REMARK   73  A    between atoms: _171  and  _172
REMARK   74  A    between atoms: _171  and  _174
REMARK   75  A    between atoms: _174  and  _175
REMARK   76  A    between atoms: _180  and  _181
REMARK   77  A    between atoms: _183  and  _185
REMARK   78  A    between atoms: _185  and  _186
REMARK   79  A    between atoms: _185  and  _188
REMARK   80  A    between atoms: _191  and  _193
REMARK   81  A    between atoms: _193  and  _194
REMARK   82  A    between atoms: _193  and  _196
REMARK   83  A    between atoms: _196  and  _197
REMARK   84  A    between atoms: _200  and  _202
REMARK   85  A    between atoms: _202  and  _203
REMARK   86  A    between atoms: _206  and  _208
REMARK   87  A    between atoms: _208  and  _209
REMARK   88  A    between atoms: _208  and  _211
REMARK   89  A    between atoms: _211  and  _212
REMARK   90  A    between atoms: _214  and  _216
REMARK   91  A    between atoms: _216  and  _217
REMARK   92  A    between atoms: _216  and  _219
REMARK   93  A    between atoms: _219  and  _220
REMARK   94  A    between atoms: _223  and  _225
REMARK   95  A    between atoms: _225  and  _226
REMARK   96  A    between atoms: _229  and  _231
REMARK   97  A    between atoms: _231  and  _232
REMARK   98  A    between atoms: _231  and  _234
REMARK   99  A    between atoms: _234  and  _235
REMARK  100  A    between atoms: _235  and  _236
REMARK  101  A    between atoms: _236  and  _237
REMARK  102  A    between atoms: _237  and  _238
REMARK  103  A    between atoms: _242  and  _244
REMARK  104  A    between atoms: _244  and  _245
REMARK  105  A    between atoms: _244  and  _247
REMARK  106  A    between atoms: _247  and  _248
REMARK  107  A    between atoms: _253  and  _254
REMARK  108  A    between atoms: _256  and  _258
REMARK  109  A    between atoms: _258  and  _259
REMARK  110  A    between atoms: _262  and  _264
REMARK  111  A    between atoms: _264  and  _265
REMARK  112  A    between atoms: _264  and  _267
REMARK  113  A    between atoms: _270  and  _272
REMARK  114  A    between atoms: _272  and  _273
REMARK  115  A    between atoms: _272  and  _275
REMARK  116  A    between atoms: _275  and  _276
REMARK  117  A    between atoms: _276  and  _277
REMARK  118  A    between atoms: _277  and  _278
REMARK  119  A    between atoms: _287  and  _289
REMARK  120  A    between atoms: _289  and  _290
REMARK  121  A    between atoms: _289  and  _292
REMARK  122  A    between atoms: _292  and  _293
REMARK  123  A    between atoms: _298  and  _299
REMARK  124  A    between atoms: _301  and  _303
REMARK  125  A    between atoms: _303  and  _304
REMARK  126  A    between atoms: _303  and  _306
REMARK  127  A    between atoms: _306  and  _307
REMARK  128  A    between atoms: _307  and  _308
REMARK  129  A    between atoms: _308  and  _309
REMARK  130  A    between atoms: _309  and  _310
REMARK  131  A    between atoms: _314  and  _316
REMARK  132  A    between atoms: _316  and  _317
REMARK  133  A    between atoms: _316  and  _319
REMARK  134  A    between atoms: _319  and  _320
REMARK                            x       y       z     vdW  Elec       q    Type
REMARK                         _______ _______ _______ _____ _____    ______ ____
ROOT
ATOM      1  O   HOH     1       5.338   1.233  -8.026  0.00  0.00    +0.000 OA
ENDROOT
TORSDOF 0
REMARK  Name = ../refined-set-2016/3pgl/3pgl_pocket.pdb
REMARK  134 active torsions:
REMARK  status: ('A' for Active; 'I' for Inactive)
REMARK    1  A    between atoms: _1  and  _3
REMARK    2  A    between atoms: _3  and  _4
REMARK    3  A    between atoms: _3  and  _6
REMARK    4  A    between atoms: _6  and  _7
REMARK    5  A    between atoms: _10  and  _12
REMARK    6  A    between atoms: _12  and  _13
REMARK    7  A    between atoms: _12  and  _15
REMARK    8  A    between atoms: _15  and  _16
REMARK    9  A    between atoms: _19  and  _21
REMARK   10  A    between atoms: _21  and  _22
REMARK   11  A    between atoms: _21  and  _24
REMARK   12  A    between atoms: _24  and  _25
REMARK   13  A    between atoms: _28  and  _30
REMARK   14  A    between atoms: _30  and  _31
REMARK   15  A    between atoms: _30  and  _33
REMARK   16  A    between atoms: _33  and  _34
REMARK   17  A    between atoms: _34  and  _35
REMARK   18  A    between atoms: _38  and  _40
REMARK   19  A    between atoms: _40  and  _41
REMARK   20  A    between atoms: _40  and  _43
REMARK   21  A    between atoms: _43  and  _44
REMARK   22  A    between atoms: _49  and  _51
REMARK   23  A    between atoms: _51  and  _52
REMARK   24  A    between atoms: _51  and  _54
REMARK   25  A    between atoms: _54  and  _55
REMARK   26  A    between atoms: _57  and  _59
REMARK   27  A    between atoms: _59  and  _60
REMARK   28  A    between atoms: _59  and  _62
REMARK   29  A    between atoms: _62  and  _63
REMARK   30  A    between atoms: _65  and  _67
REMARK   31  A    between atoms: _67  and  _68
REMARK   32  A    between atoms: _67  and  _70
REMARK   33  A    between atoms: _70  and  _71
REMARK   34  A    between atoms: _77  and  _79
REMARK   35  A    between atoms: _79  and  _80
REMARK   36  A    between atoms: _79  and  _82
REMARK   37  A    between atoms: _82  and  _83
REMARK   38  A    between atoms: _83  and  _84
REMARK   39  A    between atoms: _84  and  _85
REMARK   40  A    between atoms: _85  and  _86
REMARK   41  A    between atoms: _90  and  _92
REMARK   42  A    between atoms: _92  and  _93
REMARK   43  A    between atoms: _92  and  _95
REMARK   44  A    between atoms: _95  and  _96
REMARK   45  A    between atoms: _100  and  _101
REMARK   46  A    between atoms: _106  and  _108
REMARK   47  A    between atoms: _108  and  _109
REMARK   48  A    between atoms: _108  and  _111
REMARK   49  A    between atoms: _114  and  _116
REMARK   50  A    between atoms: _116  and  _117
REMARK   51  A    between atoms: _116  and  _119
REMARK   52  A    between atoms: _119  and  _120
REMARK   53  A    between atoms: _120  and  _121
REMARK   54  A    between atoms: _124  and  _126
REMARK   55  A    between atoms: _126  and  _127
REMARK   56  A    between atoms: _126  and  _129
REMARK   57  A    between atoms: _129  and  _130
REMARK   58  A    between atoms: _133  and  _135
REMARK   59  A    between atoms: _135  and  _136
REMARK   60  A    between atoms: _135  and  _138
REMARK   61  A    between atoms: _138  and  _139
REMARK   62  A    between atoms: _142  and  _144
REMARK   63  A    between atoms: _144  and  _145
REMARK   64  A    between atoms: _144  and  _147
REMARK   65  A    between atoms: _150  and  _152
REMARK   66  A    between atoms: _152  and  _153
REMARK   67  A    between atoms: _152  and  _155
REMARK   68  A    between atoms: _155  and  _156
REMARK   69  A    between atoms: _161  and  _163
REMARK   70  A    between atoms: _163  and  _164
REMARK   71  A    between atoms: _163  and  _166
REMARK   72  A    between atoms: _169  and  _171
REMARK   73  A    between atoms: _171  and  _172
REMARK   74  A    between atoms: _171  and  _174
REMARK   75  A    between atoms: _174  and  _175
REMARK   76  A    between atoms: _180  and  _181
REMARK   77  A    between atoms: _183  and  _185
REMARK   78  A    between atoms: _185  and  _186
REMARK   79  A    between atoms: _185  and  _188
REMARK   80  A    between atoms: _191  and  _193
REMARK   81  A    between atoms: _193  and  _194
REMARK   82  A    between atoms: _193  and  _196
REMARK   83  A    between atoms: _196  and  _197
REMARK   84  A    between atoms: _200  and  _202
REMARK   85  A    between atoms: _202  and  _203
REMARK   86  A    between atoms: _206  and  _208
REMARK   87  A    between atoms: _208  and  _209
REMARK   88  A    between atoms: _208  and  _211
REMARK   89  A    between atoms: _211  and  _212
REMARK   90  A    between atoms: _214  and  _216
REMARK   91  A    between atoms: _216  and  _217
REMARK   92  A    between atoms: _216  and  _219
REMARK   93  A    between atoms: _219  and  _220
REMARK   94  A    between atoms: _223  and  _225
REMARK   95  A    between atoms: _225  and  _226
REMARK   96  A    between atoms: _229  and  _231
REMARK   97  A    between atoms: _231  and  _232
REMARK   98  A    between atoms: _231  and  _234
REMARK   99  A    between atoms: _234  and  _235
REMARK  100  A    between atoms: _235  and  _236
REMARK  101  A    between atoms: _236  and  _237
REMARK  102  A    between atoms: _237  and  _238
REMARK  103  A    between atoms: _242  and  _244
REMARK  104  A    between atoms: _244  and  _245
REMARK  105  A    between atoms: _244  and  _247
REMARK  106  A    between atoms: _247  and  _248
REMARK  107  A    between atoms: _253  and  _254
REMARK  108  A    between atoms: _256  and  _258
REMARK  109  A    between atoms: _258  and  _259
REMARK  110  A    between atoms: _262  and  _264
REMARK  111  A    between atoms: _264  and  _265
REMARK  112  A    between atoms: _264  and  _267
REMARK  113  A    between atoms: _270  and  _272
REMARK  114  A    between atoms: _272  and  _273
REMARK  115  A    between atoms: _272  and  _275
REMARK  116  A    between atoms: _275  and  _276
REMARK  117  A    between atoms: _276  and  _277
REMARK  118  A    between atoms: _277  and  _278
REMARK  119  A    between atoms: _287  and  _289
REMARK  120  A    between atoms: _289  and  _290
REMARK  121  A    between atoms: _289  and  _292
REMARK  122  A    between atoms: _292  and  _293
REMARK  123  A    between atoms: _298  and  _299
REMARK  124  A    between atoms: _301  and  _303
REMARK  125  A    between atoms: _303  and  _304
REMARK  126  A    between atoms: _303  and  _306
REMARK  127  A    between atoms: _306  and  _307
REMARK  128  A    between atoms: _307  and  _308
REMARK  129  A    between atoms: _308  and  _309
REMARK  130  A    between atoms: _309  and  _310
REMARK  131  A    between atoms: _314  and  _316
REMARK  132  A    between atoms: _316  and  _317
REMARK  133  A    between atoms: _316  and  _319
REMARK  134  A    between atoms: _319  and  _320
REMARK                            x       y       z     vdW  Elec       q    Type
REMARK                         _______ _______ _______ _____ _____    ______ ____
ROOT
ATOM      1  O   HOH     1       1.943   7.995  -2.794  0.00  0.00    +0.000 OA
ENDROOT
TORSDOF 0
REMARK  Name = ../refined-set-2016/3pgl/3pgl_pocket.pdb
REMARK  134 active torsions:
REMARK  status: ('A' for Active; 'I' for Inactive)
REMARK    1  A    between atoms: _1  and  _3
REMARK    2  A    between atoms: _3  and  _4
REMARK    3  A    between atoms: _3  and  _6
REMARK    4  A    between atoms: _6  and  _7
REMARK    5  A    between atoms: _10  and  _12
REMARK    6  A    between atoms: _12  and  _13
REMARK    7  A    between atoms: _12  and  _15
REMARK    8  A    between atoms: _15  and  _16
REMARK    9  A    between atoms: _19  and  _21
REMARK   10  A    between atoms: _21  and  _22
REMARK   11  A    between atoms: _21  and  _24
REMARK   12  A    between atoms: _24  and  _25
REMARK   13  A    between atoms: _28  and  _30
REMARK   14  A    between atoms: _30  and  _31
REMARK   15  A    between atoms: _30  and  _33
REMARK   16  A    between atoms: _33  and  _34
REMARK   17  A    between atoms: _34  and  _35
REMARK   18  A    between atoms: _38  and  _40
REMARK   19  A    between atoms: _40  and  _41
REMARK   20  A    between atoms: _40  and  _43
REMARK   21  A    between atoms: _43  and  _44
REMARK   22  A    between atoms: _49  and  _51
REMARK   23  A    between atoms: _51  and  _52
REMARK   24  A    between atoms: _51  and  _54
REMARK   25  A    between atoms: _54  and  _55
REMARK   26  A    between atoms: _57  and  _59
REMARK   27  A    between atoms: _59  and  _60
REMARK   28  A    between atoms: _59  and  _62
REMARK   29  A    between atoms: _62  and  _63
REMARK   30  A    between atoms: _65  and  _67
REMARK   31  A    between atoms: _67  and  _68
REMARK   32  A    between atoms: _67  and  _70
REMARK   33  A    between atoms: _70  and  _71
REMARK   34  A    between atoms: _77  and  _79
REMARK   35  A    between atoms: _79  and  _80
REMARK   36  A    between atoms: _79  and  _82
REMARK   37  A    between atoms: _82  and  _83
REMARK   38  A    between atoms: _83  and  _84
REMARK   39  A    between atoms: _84  and  _85
REMARK   40  A    between atoms: _85  and  _86
REMARK   41  A    between atoms: _90  and  _92
REMARK   42  A    between atoms: _92  and  _93
REMARK   43  A    between atoms: _92  and  _95
REMARK   44  A    between atoms: _95  and  _96
REMARK   45  A    between atoms: _100  and  _101
REMARK   46  A    between atoms: _106  and  _108
REMARK   47  A    between atoms: _108  and  _109
REMARK   48  A    between atoms: _108  and  _111
REMARK   49  A    between atoms: _114  and  _116
REMARK   50  A    between atoms: _116  and  _117
REMARK   51  A    between atoms: _116  and  _119
REMARK   52  A    between atoms: _119  and  _120
REMARK   53  A    between atoms: _120  and  _121
REMARK   54  A    between atoms: _124  and  _126
REMARK   55  A    between atoms: _126  and  _127
REMARK   56  A    between atoms: _126  and  _129
REMARK   57  A    between atoms: _129  and  _130
REMARK   58  A    between atoms: _133  and  _135
REMARK   59  A    between atoms: _135  and  _136
REMARK   60  A    between atoms: _135  and  _138
REMARK   61  A    between atoms: _138  and  _139
REMARK   62  A    between atoms: _142  and  _144
REMARK   63  A    between atoms: _144  and  _145
REMARK   64  A    between atoms: _144  and  _147
REMARK   65  A    between atoms: _150  and  _152
REMARK   66  A    between atoms: _152  and  _153
REMARK   67  A    between atoms: _152  and  _155
REMARK   68  A    between atoms: _155  and  _156
REMARK   69  A    between atoms: _161  and  _163
REMARK   70  A    between atoms: _163  and  _164
REMARK   71  A    between atoms: _163  and  _166
REMARK   72  A    between atoms: _169  and  _171
REMARK   73  A    between atoms: _171  and  _172
REMARK   74  A    between atoms: _171  and  _174
REMARK   75  A    between atoms: _174  and  _175
REMARK   76  A    between atoms: _180  and  _181
REMARK   77  A    between atoms: _183  and  _185
REMARK   78  A    between atoms: _185  and  _186
REMARK   79  A    between atoms: _185  and  _188
REMARK   80  A    between atoms: _191  and  _193
REMARK   81  A    between atoms: _193  and  _194
REMARK   82  A    between atoms: _193  and  _196
REMARK   83  A    between atoms: _196  and  _197
REMARK   84  A    between atoms: _200  and  _202
REMARK   85  A    between atoms: _202  and  _203
REMARK   86  A    between atoms: _206  and  _208
REMARK   87  A    between atoms: _208  and  _209
REMARK   88  A    between atoms: _208  and  _211
REMARK   89  A    between atoms: _211  and  _212
REMARK   90  A    between atoms: _214  and  _216
REMARK   91  A    between atoms: _216  and  _217
REMARK   92  A    between atoms: _216  and  _219
REMARK   93  A    between atoms: _219  and  _220
REMARK   94  A    between atoms: _223  and  _225
REMARK   95  A    between atoms: _225  and  _226
REMARK   96  A    between atoms: _229  and  _231
REMARK   97  A    between atoms: _231  and  _232
REMARK   98  A    between atoms: _231  and  _234
REMARK   99  A    between atoms: _234  and  _235
REMARK  100  A    between atoms: _235  and  _236
REMARK  101  A    between atoms: _236  and  _237
REMARK  102  A    between atoms: _237  and  _238
REMARK  103  A    between atoms: _242  and  _244
REMARK  104  A    between atoms: _244  and  _245
REMARK  105  A    between atoms: _244  and  _247
REMARK  106  A    between atoms: _247  and  _248
REMARK  107  A    between atoms: _253  and  _254
REMARK  108  A    between atoms: _256  and  _258
REMARK  109  A    between atoms: _258  and  _259
REMARK  110  A    between atoms: _262  and  _264
REMARK  111  A    between atoms: _264  and  _265
REMARK  112  A    between atoms: _264  and  _267
REMARK  113  A    between atoms: _270  and  _272
REMARK  114  A    between atoms: _272  and  _273
REMARK  115  A    between atoms: _272  and  _275
REMARK  116  A    between atoms: _275  and  _276
REMARK  117  A    between atoms: _276  and  _277
REMARK  118  A    between atoms: _277  and  _278
REMARK  119  A    between atoms: _287  and  _289
REMARK  120  A    between atoms: _289  and  _290
REMARK  121  A    between atoms: _289  and  _292
REMARK  122  A    between atoms: _292  and  _293
REMARK  123  A    between atoms: _298  and  _299
REMARK  124  A    between atoms: _301  and  _303
REMARK  125  A    between atoms: _303  and  _304
REMARK  126  A    between atoms: _303  and  _306
REMARK  127  A    between atoms: _306  and  _307
REMARK  128  A    between atoms: _307  and  _308
REMARK  129  A    between atoms: _308  and  _309
REMARK  130  A    between atoms: _309  and  _310
REMARK  131  A    between atoms: _314  and  _316
REMARK  132  A    between atoms: _316  and  _317
REMARK  133  A    between atoms: _316  and  _319
REMARK  134  A    between atoms: _319  and  _320
REMARK                            x       y       z     vdW  Elec       q    Type
REMARK                         _______ _______ _______ _____ _____    ______ ____
ROOT
ATOM      1  O   HOH     1       7.736  18.681  -5.469  0.00  0.00    +0.000 OA
ENDROOT
TORSDOF 0
REMARK  Name = ../refined-set-2016/3pgl/3pgl_pocket.pdb
REMARK  134 active torsions:
REMARK  status: ('A' for Active; 'I' for Inactive)
REMARK    1  A    between atoms: _1  and  _3
REMARK    2  A    between atoms: _3  and  _4
REMARK    3  A    between atoms: _3  and  _6
REMARK    4  A    between atoms: _6  and  _7
REMARK    5  A    between atoms: _10  and  _12
REMARK    6  A    between atoms: _12  and  _13
REMARK    7  A    between atoms: _12  and  _15
REMARK    8  A    between atoms: _15  and  _16
REMARK    9  A    between atoms: _19  and  _21
REMARK   10  A    between atoms: _21  and  _22
REMARK   11  A    between atoms: _21  and  _24
REMARK   12  A    between atoms: _24  and  _25
REMARK   13  A    between atoms: _28  and  _30
REMARK   14  A    between atoms: _30  and  _31
REMARK   15  A    between atoms: _30  and  _33
REMARK   16  A    between atoms: _33  and  _34
REMARK   17  A    between atoms: _34  and  _35
REMARK   18  A    between atoms: _38  and  _40
REMARK   19  A    between atoms: _40  and  _41
REMARK   20  A    between atoms: _40  and  _43
REMARK   21  A    between atoms: _43  and  _44
REMARK   22  A    between atoms: _49  and  _51
REMARK   23  A    between atoms: _51  and  _52
REMARK   24  A    between atoms: _51  and  _54
REMARK   25  A    between atoms: _54  and  _55
REMARK   26  A    between atoms: _57  and  _59
REMARK   27  A    between atoms: _59  and  _60
REMARK   28  A    between atoms: _59  and  _62
REMARK   29  A    between atoms: _62  and  _63
REMARK   30  A    between atoms: _65  and  _67
REMARK   31  A    between atoms: _67  and  _68
REMARK   32  A    between atoms: _67  and  _70
REMARK   33  A    between atoms: _70  and  _71
REMARK   34  A    between atoms: _77  and  _79
REMARK   35  A    between atoms: _79  and  _80
REMARK   36  A    between atoms: _79  and  _82
REMARK   37  A    between atoms: _82  and  _83
REMARK   38  A    between atoms: _83  and  _84
REMARK   39  A    between atoms: _84  and  _85
REMARK   40  A    between atoms: _85  and  _86
REMARK   41  A    between atoms: _90  and  _92
REMARK   42  A    between atoms: _92  and  _93
REMARK   43  A    between atoms: _92  and  _95
REMARK   44  A    between atoms: _95  and  _96
REMARK   45  A    between atoms: _100  and  _101
REMARK   46  A    between atoms: _106  and  _108
REMARK   47  A    between atoms: _108  and  _109
REMARK   48  A    between atoms: _108  and  _111
REMARK   49  A    between atoms: _114  and  _116
REMARK   50  A    between atoms: _116  and  _117
REMARK   51  A    between atoms: _116  and  _119
REMARK   52  A    between atoms: _119  and  _120
REMARK   53  A    between atoms: _120  and  _121
REMARK   54  A    between atoms: _124  and  _126
REMARK   55  A    between atoms: _126  and  _127
REMARK   56  A    between atoms: _126  and  _129
REMARK   57  A    between atoms: _129  and  _130
REMARK   58  A    between atoms: _133  and  _135
REMARK   59  A    between atoms: _135  and  _136
REMARK   60  A    between atoms: _135  and  _138
REMARK   61  A    between atoms: _138  and  _139
REMARK   62  A    between atoms: _142  and  _144
REMARK   63  A    between atoms: _144  and  _145
REMARK   64  A    between atoms: _144  and  _147
REMARK   65  A    between atoms: _150  and  _152
REMARK   66  A    between atoms: _152  and  _153
REMARK   67  A    between atoms: _152  and  _155
REMARK   68  A    between atoms: _155  and  _156
REMARK   69  A    between atoms: _161  and  _163
REMARK   70  A    between atoms: _163  and  _164
REMARK   71  A    between atoms: _163  and  _166
REMARK   72  A    between atoms: _169  and  _171
REMARK   73  A    between atoms: _171  and  _172
REMARK   74  A    between atoms: _171  and  _174
REMARK   75  A    between atoms: _174  and  _175
REMARK   76  A    between atoms: _180  and  _181
REMARK   77  A    between atoms: _183  and  _185
REMARK   78  A    between atoms: _185  and  _186
REMARK   79  A    between atoms: _185  and  _188
REMARK   80  A    between atoms: _191  and  _193
REMARK   81  A    between atoms: _193  and  _194
REMARK   82  A    between atoms: _193  and  _196
REMARK   83  A    between atoms: _196  and  _197
REMARK   84  A    between atoms: _200  and  _202
REMARK   85  A    between atoms: _202  and  _203
REMARK   86  A    between atoms: _206  and  _208
REMARK   87  A    between atoms: _208  and  _209
REMARK   88  A    between atoms: _208  and  _211
REMARK   89  A    between atoms: _211  and  _212
REMARK   90  A    between atoms: _214  and  _216
REMARK   91  A    between atoms: _216  and  _217
REMARK   92  A    between atoms: _216  and  _219
REMARK   93  A    between atoms: _219  and  _220
REMARK   94  A    between atoms: _223  and  _225
REMARK   95  A    between atoms: _225  and  _226
REMARK   96  A    between atoms: _229  and  _231
REMARK   97  A    between atoms: _231  and  _232
REMARK   98  A    between atoms: _231  and  _234
REMARK   99  A    between atoms: _234  and  _235
REMARK  100  A    between atoms: _235  and  _236
REMARK  101  A    between atoms: _236  and  _237
REMARK  102  A    between atoms: _237  and  _238
REMARK  103  A    between atoms: _242  and  _244
REMARK  104  A    between atoms: _244  and  _245
REMARK  105  A    between atoms: _244  and  _247
REMARK  106  A    between atoms: _247  and  _248
REMARK  107  A    between atoms: _253  and  _254
REMARK  108  A    between atoms: _256  and  _258
REMARK  109  A    between atoms: _258  and  _259
REMARK  110  A    between atoms: _262  and  _264
REMARK  111  A    between atoms: _264  and  _265
REMARK  112  A    between atoms: _264  and  _267
REMARK  113  A    between atoms: _270  and  _272
REMARK  114  A    between atoms: _272  and  _273
REMARK  115  A    between atoms: _272  and  _275
REMARK  116  A    between atoms: _275  and  _276
REMARK  117  A    between atoms: _276  and  _277
REMARK  118  A    between atoms: _277  and  _278
REMARK  119  A    between atoms: _287  and  _289
REMARK  120  A    between atoms: _289  and  _290
REMARK  121  A    between atoms: _289  and  _292
REMARK  122  A    between atoms: _292  and  _293
REMARK  123  A    between atoms: _298  and  _299
REMARK  124  A    between atoms: _301  and  _303
REMARK  125  A    between atoms: _303  and  _304
REMARK  126  A    between atoms: _303  and  _306
REMARK  127  A    between atoms: _306  and  _307
REMARK  128  A    between atoms: _307  and  _308
REMARK  129  A    between atoms: _308  and  _309
REMARK  130  A    between atoms: _309  and  _310
REMARK  131  A    between atoms: _314  and  _316
REMARK  132  A    between atoms: _316  and  _317
REMARK  133  A    between atoms: _316  and  _319
REMARK  134  A    between atoms: _319  and  _320
REMARK                            x       y       z     vdW  Elec       q    Type
REMARK                         _______ _______ _______ _____ _____    ______ ____
ROOT
ATOM      1  O   HOH     1      10.956  14.971  -4.454  0.00  0.00    +0.000 OA
ENDROOT
TORSDOF 0
REMARK  Name = ../refined-set-2016/3pgl/3pgl_pocket.pdb
REMARK  134 active torsions:
REMARK  status: ('A' for Active; 'I' for Inactive)
REMARK    1  A    between atoms: _1  and  _3
REMARK    2  A    between atoms: _3  and  _4
REMARK    3  A    between atoms: _3  and  _6
REMARK    4  A    between atoms: _6  and  _7
REMARK    5  A    between atoms: _10  and  _12
REMARK    6  A    between atoms: _12  and  _13
REMARK    7  A    between atoms: _12  and  _15
REMARK    8  A    between atoms: _15  and  _16
REMARK    9  A    between atoms: _19  and  _21
REMARK   10  A    between atoms: _21  and  _22
REMARK   11  A    between atoms: _21  and  _24
REMARK   12  A    between atoms: _24  and  _25
REMARK   13  A    between atoms: _28  and  _30
REMARK   14  A    between atoms: _30  and  _31
REMARK   15  A    between atoms: _30  and  _33
REMARK   16  A    between atoms: _33  and  _34
REMARK   17  A    between atoms: _34  and  _35
REMARK   18  A    between atoms: _38  and  _40
REMARK   19  A    between atoms: _40  and  _41
REMARK   20  A    between atoms: _40  and  _43
REMARK   21  A    between atoms: _43  and  _44
REMARK   22  A    between atoms: _49  and  _51
REMARK   23  A    between atoms: _51  and  _52
REMARK   24  A    between atoms: _51  and  _54
REMARK   25  A    between atoms: _54  and  _55
REMARK   26  A    between atoms: _57  and  _59
REMARK   27  A    between atoms: _59  and  _60
REMARK   28  A    between atoms: _59  and  _62
REMARK   29  A    between atoms: _62  and  _63
REMARK   30  A    between atoms: _65  and  _67
REMARK   31  A    between atoms: _67  and  _68
REMARK   32  A    between atoms: _67  and  _70
REMARK   33  A    between atoms: _70  and  _71
REMARK   34  A    between atoms: _77  and  _79
REMARK   35  A    between atoms: _79  and  _80
REMARK   36  A    between atoms: _79  and  _82
REMARK   37  A    between atoms: _82  and  _83
REMARK   38  A    between atoms: _83  and  _84
REMARK   39  A    between atoms: _84  and  _85
REMARK   40  A    between atoms: _85  and  _86
REMARK   41  A    between atoms: _90  and  _92
REMARK   42  A    between atoms: _92  and  _93
REMARK   43  A    between atoms: _92  and  _95
REMARK   44  A    between atoms: _95  and  _96
REMARK   45  A    between atoms: _100  and  _101
REMARK   46  A    between atoms: _106  and  _108
REMARK   47  A    between atoms: _108  and  _109
REMARK   48  A    between atoms: _108  and  _111
REMARK   49  A    between atoms: _114  and  _116
REMARK   50  A    between atoms: _116  and  _117
REMARK   51  A    between atoms: _116  and  _119
REMARK   52  A    between atoms: _119  and  _120
REMARK   53  A    between atoms: _120  and  _121
REMARK   54  A    between atoms: _124  and  _126
REMARK   55  A    between atoms: _126  and  _127
REMARK   56  A    between atoms: _126  and  _129
REMARK   57  A    between atoms: _129  and  _130
REMARK   58  A    between atoms: _133  and  _135
REMARK   59  A    between atoms: _135  and  _136
REMARK   60  A    between atoms: _135  and  _138
REMARK   61  A    between atoms: _138  and  _139
REMARK   62  A    between atoms: _142  and  _144
REMARK   63  A    between atoms: _144  and  _145
REMARK   64  A    between atoms: _144  and  _147
REMARK   65  A    between atoms: _150  and  _152
REMARK   66  A    between atoms: _152  and  _153
REMARK   67  A    between atoms: _152  and  _155
REMARK   68  A    between atoms: _155  and  _156
REMARK   69  A    between atoms: _161  and  _163
REMARK   70  A    between atoms: _163  and  _164
REMARK   71  A    between atoms: _163  and  _166
REMARK   72  A    between atoms: _169  and  _171
REMARK   73  A    between atoms: _171  and  _172
REMARK   74  A    between atoms: _171  and  _174
REMARK   75  A    between atoms: _174  and  _175
REMARK   76  A    between atoms: _180  and  _181
REMARK   77  A    between atoms: _183  and  _185
REMARK   78  A    between atoms: _185  and  _186
REMARK   79  A    between atoms: _185  and  _188
REMARK   80  A    between atoms: _191  and  _193
REMARK   81  A    between atoms: _193  and  _194
REMARK   82  A    between atoms: _193  and  _196
REMARK   83  A    between atoms: _196  and  _197
REMARK   84  A    between atoms: _200  and  _202
REMARK   85  A    between atoms: _202  and  _203
REMARK   86  A    between atoms: _206  and  _208
REMARK   87  A    between atoms: _208  and  _209
REMARK   88  A    between atoms: _208  and  _211
REMARK   89  A    between atoms: _211  and  _212
REMARK   90  A    between atoms: _214  and  _216
REMARK   91  A    between atoms: _216  and  _217
REMARK   92  A    between atoms: _216  and  _219
REMARK   93  A    between atoms: _219  and  _220
REMARK   94  A    between atoms: _223  and  _225
REMARK   95  A    between atoms: _225  and  _226
REMARK   96  A    between atoms: _229  and  _231
REMARK   97  A    between atoms: _231  and  _232
REMARK   98  A    between atoms: _231  and  _234
REMARK   99  A    between atoms: _234  and  _235
REMARK  100  A    between atoms: _235  and  _236
REMARK  101  A    between atoms: _236  and  _237
REMARK  102  A    between atoms: _237  and  _238
REMARK  103  A    between atoms: _242  and  _244
REMARK  104  A    between atoms: _244  and  _245
REMARK  105  A    between atoms: _244  and  _247
REMARK  106  A    between atoms: _247  and  _248
REMARK  107  A    between atoms: _253  and  _254
REMARK  108  A    between atoms: _256  and  _258
REMARK  109  A    between atoms: _258  and  _259
REMARK  110  A    between atoms: _262  and  _264
REMARK  111  A    between atoms: _264  and  _265
REMARK  112  A    between atoms: _264  and  _267
REMARK  113  A    between atoms: _270  and  _272
REMARK  114  A    between atoms: _272  and  _273
REMARK  115  A    between atoms: _272  and  _275
REMARK  116  A    between atoms: _275  and  _276
REMARK  117  A    between atoms: _276  and  _277
REMARK  118  A    between atoms: _277  and  _278
REMARK  119  A    between atoms: _287  and  _289
REMARK  120  A    between atoms: _289  and  _290
REMARK  121  A    between atoms: _289  and  _292
REMARK  122  A    between atoms: _292  and  _293
REMARK  123  A    between atoms: _298  and  _299
REMARK  124  A    between atoms: _301  and  _303
REMARK  125  A    between atoms: _303  and  _304
REMARK  126  A    between atoms: _303  and  _306
REMARK  127  A    between atoms: _306  and  _307
REMARK  128  A    between atoms: _307  and  _308
REMARK  129  A    between atoms: _308  and  _309
REMARK  130  A    between atoms: _309  and  _310
REMARK  131  A    between atoms: _314  and  _316
REMARK  132  A    between atoms: _316  and  _317
REMARK  133  A    between atoms: _316  and  _319
REMARK  134  A    between atoms: _319  and  _320
REMARK                            x       y       z     vdW  Elec       q    Type
REMARK                         _______ _______ _______ _____ _____    ______ ____
ROOT
ATOM      1  O   HOH     1      -1.206  14.693  -6.761  0.00  0.00    +0.000 OA
ENDROOT
TORSDOF 0
REMARK  Name = ../refined-set-2016/3pgl/3pgl_pocket.pdb
REMARK  134 active torsions:
REMARK  status: ('A' for Active; 'I' for Inactive)
REMARK    1  A    between atoms: _1  and  _3
REMARK    2  A    between atoms: _3  and  _4
REMARK    3  A    between atoms: _3  and  _6
REMARK    4  A    between atoms: _6  and  _7
REMARK    5  A    between atoms: _10  and  _12
REMARK    6  A    between atoms: _12  and  _13
REMARK    7  A    between atoms: _12  and  _15
REMARK    8  A    between atoms: _15  and  _16
REMARK    9  A    between atoms: _19  and  _21
REMARK   10  A    between atoms: _21  and  _22
REMARK   11  A    between atoms: _21  and  _24
REMARK   12  A    between atoms: _24  and  _25
REMARK   13  A    between atoms: _28  and  _30
REMARK   14  A    between atoms: _30  and  _31
REMARK   15  A    between atoms: _30  and  _33
REMARK   16  A    between atoms: _33  and  _34
REMARK   17  A    between atoms: _34  and  _35
REMARK   18  A    between atoms: _38  and  _40
REMARK   19  A    between atoms: _40  and  _41
REMARK   20  A    between atoms: _40  and  _43
REMARK   21  A    between atoms: _43  and  _44
REMARK   22  A    between atoms: _49  and  _51
REMARK   23  A    between atoms: _51  and  _52
REMARK   24  A    between atoms: _51  and  _54
REMARK   25  A    between atoms: _54  and  _55
REMARK   26  A    between atoms: _57  and  _59
REMARK   27  A    between atoms: _59  and  _60
REMARK   28  A    between atoms: _59  and  _62
REMARK   29  A    between atoms: _62  and  _63
REMARK   30  A    between atoms: _65  and  _67
REMARK   31  A    between atoms: _67  and  _68
REMARK   32  A    between atoms: _67  and  _70
REMARK   33  A    between atoms: _70  and  _71
REMARK   34  A    between atoms: _77  and  _79
REMARK   35  A    between atoms: _79  and  _80
REMARK   36  A    between atoms: _79  and  _82
REMARK   37  A    between atoms: _82  and  _83
REMARK   38  A    between atoms: _83  and  _84
REMARK   39  A    between atoms: _84  and  _85
REMARK   40  A    between atoms: _85  and  _86
REMARK   41  A    between atoms: _90  and  _92
REMARK   42  A    between atoms: _92  and  _93
REMARK   43  A    between atoms: _92  and  _95
REMARK   44  A    between atoms: _95  and  _96
REMARK   45  A    between atoms: _100  and  _101
REMARK   46  A    between atoms: _106  and  _108
REMARK   47  A    between atoms: _108  and  _109
REMARK   48  A    between atoms: _108  and  _111
REMARK   49  A    between atoms: _114  and  _116
REMARK   50  A    between atoms: _116  and  _117
REMARK   51  A    between atoms: _116  and  _119
REMARK   52  A    between atoms: _119  and  _120
REMARK   53  A    between atoms: _120  and  _121
REMARK   54  A    between atoms: _124  and  _126
REMARK   55  A    between atoms: _126  and  _127
REMARK   56  A    between atoms: _126  and  _129
REMARK   57  A    between atoms: _129  and  _130
REMARK   58  A    between atoms: _133  and  _135
REMARK   59  A    between atoms: _135  and  _136
REMARK   60  A    between atoms: _135  and  _138
REMARK   61  A    between atoms: _138  and  _139
REMARK   62  A    between atoms: _142  and  _144
REMARK   63  A    between atoms: _144  and  _145
REMARK   64  A    between atoms: _144  and  _147
REMARK   65  A    between atoms: _150  and  _152
REMARK   66  A    between atoms: _152  and  _153
REMARK   67  A    between atoms: _152  and  _155
REMARK   68  A    between atoms: _155  and  _156
REMARK   69  A    between atoms: _161  and  _163
REMARK   70  A    between atoms: _163  and  _164
REMARK   71  A    between atoms: _163  and  _166
REMARK   72  A    between atoms: _169  and  _171
REMARK   73  A    between atoms: _171  and  _172
REMARK   74  A    between atoms: _171  and  _174
REMARK   75  A    between atoms: _174  and  _175
REMARK   76  A    between atoms: _180  and  _181
REMARK   77  A    between atoms: _183  and  _185
REMARK   78  A    between atoms: _185  and  _186
REMARK   79  A    between atoms: _185  and  _188
REMARK   80  A    between atoms: _191  and  _193
REMARK   81  A    between atoms: _193  and  _194
REMARK   82  A    between atoms: _193  and  _196
REMARK   83  A    between atoms: _196  and  _197
REMARK   84  A    between atoms: _200  and  _202
REMARK   85  A    between atoms: _202  and  _203
REMARK   86  A    between atoms: _206  and  _208
REMARK   87  A    between atoms: _208  and  _209
REMARK   88  A    between atoms: _208  and  _211
REMARK   89  A    between atoms: _211  and  _212
REMARK   90  A    between atoms: _214  and  _216
REMARK   91  A    between atoms: _216  and  _217
REMARK   92  A    between atoms: _216  and  _219
REMARK   93  A    between atoms: _219  and  _220
REMARK   94  A    between atoms: _223  and  _225
REMARK   95  A    between atoms: _225  and  _226
REMARK   96  A    between atoms: _229  and  _231
REMARK   97  A    between atoms: _231  and  _232
REMARK   98  A    between atoms: _231  and  _234
REMARK   99  A    between atoms: _234  and  _235
REMARK  100  A    between atoms: _235  and  _236
REMARK  101  A    between atoms: _236  and  _237
REMARK  102  A    between atoms: _237  and  _238
REMARK  103  A    between atoms: _242  and  _244
REMARK  104  A    between atoms: _244  and  _245
REMARK  105  A    between atoms: _244  and  _247
REMARK  106  A    between atoms: _247  and  _248
REMARK  107  A    between atoms: _253  and  _254
REMARK  108  A    between atoms: _256  and  _258
REMARK  109  A    between atoms: _258  and  _259
REMARK  110  A    between atoms: _262  and  _264
REMARK  111  A    between atoms: _264  and  _265
REMARK  112  A    between atoms: _264  and  _267
REMARK  113  A    between atoms: _270  and  _272
REMARK  114  A    between atoms: _272  and  _273
REMARK  115  A    between atoms: _272  and  _275
REMARK  116  A    between atoms: _275  and  _276
REMARK  117  A    between atoms: _276  and  _277
REMARK  118  A    between atoms: _277  and  _278
REMARK  119  A    between atoms: _287  and  _289
REMARK  120  A    between atoms: _289  and  _290
REMARK  121  A    between atoms: _289  and  _292
REMARK  122  A    between atoms: _292  and  _293
REMARK  123  A    between atoms: _298  and  _299
REMARK  124  A    between atoms: _301  and  _303
REMARK  125  A    between atoms: _303  and  _304
REMARK  126  A    between atoms: _303  and  _306
REMARK  127  A    between atoms: _306  and  _307
REMARK  128  A    between atoms: _307  and  _308
REMARK  129  A    between atoms: _308  and  _309
REMARK  130  A    between atoms: _309  and  _310
REMARK  131  A    between atoms: _314  and  _316
REMARK  132  A    between atoms: _316  and  _317
REMARK  133  A    between atoms: _316  and  _319
REMARK  134  A    between atoms: _319  and  _320
REMARK                            x       y       z     vdW  Elec       q    Type
REMARK                         _______ _______ _______ _____ _____    ______ ____
ROOT
ATOM      1  O   HOH     1       3.189  16.786  -9.818  0.00  0.00    +0.000 OA
ENDROOT
TORSDOF 0
REMARK  Name = ../refined-set-2016/3pgl/3pgl_pocket.pdb
REMARK  134 active torsions:
REMARK  status: ('A' for Active; 'I' for Inactive)
REMARK    1  A    between atoms: _1  and  _3
REMARK    2  A    between atoms: _3  and  _4
REMARK    3  A    between atoms: _3  and  _6
REMARK    4  A    between atoms: _6  and  _7
REMARK    5  A    between atoms: _10  and  _12
REMARK    6  A    between atoms: _12  and  _13
REMARK    7  A    between atoms: _12  and  _15
REMARK    8  A    between atoms: _15  and  _16
REMARK    9  A    between atoms: _19  and  _21
REMARK   10  A    between atoms: _21  and  _22
REMARK   11  A    between atoms: _21  and  _24
REMARK   12  A    between atoms: _24  and  _25
REMARK   13  A    between atoms: _28  and  _30
REMARK   14  A    between atoms: _30  and  _31
REMARK   15  A    between atoms: _30  and  _33
REMARK   16  A    between atoms: _33  and  _34
REMARK   17  A    between atoms: _34  and  _35
REMARK   18  A    between atoms: _38  and  _40
REMARK   19  A    between atoms: _40  and  _41
REMARK   20  A    between atoms: _40  and  _43
REMARK   21  A    between atoms: _43  and  _44
REMARK   22  A    between atoms: _49  and  _51
REMARK   23  A    between atoms: _51  and  _52
REMARK   24  A    between atoms: _51  and  _54
REMARK   25  A    between atoms: _54  and  _55
REMARK   26  A    between atoms: _57  and  _59
REMARK   27  A    between atoms: _59  and  _60
REMARK   28  A    between atoms: _59  and  _62
REMARK   29  A    between atoms: _62  and  _63
REMARK   30  A    between atoms: _65  and  _67
REMARK   31  A    between atoms: _67  and  _68
REMARK   32  A    between atoms: _67  and  _70
REMARK   33  A    between atoms: _70  and  _71
REMARK   34  A    between atoms: _77  and  _79
REMARK   35  A    between atoms: _79  and  _80
REMARK   36  A    between atoms: _79  and  _82
REMARK   37  A    between atoms: _82  and  _83
REMARK   38  A    between atoms: _83  and  _84
REMARK   39  A    between atoms: _84  and  _85
REMARK   40  A    between atoms: _85  and  _86
REMARK   41  A    between atoms: _90  and  _92
REMARK   42  A    between atoms: _92  and  _93
REMARK   43  A    between atoms: _92  and  _95
REMARK   44  A    between atoms: _95  and  _96
REMARK   45  A    between atoms: _100  and  _101
REMARK   46  A    between atoms: _106  and  _108
REMARK   47  A    between atoms: _108  and  _109
REMARK   48  A    between atoms: _108  and  _111
REMARK   49  A    between atoms: _114  and  _116
REMARK   50  A    between atoms: _116  and  _117
REMARK   51  A    between atoms: _116  and  _119
REMARK   52  A    between atoms: _119  and  _120
REMARK   53  A    between atoms: _120  and  _121
REMARK   54  A    between atoms: _124  and  _126
REMARK   55  A    between atoms: _126  and  _127
REMARK   56  A    between atoms: _126  and  _129
REMARK   57  A    between atoms: _129  and  _130
REMARK   58  A    between atoms: _133  and  _135
REMARK   59  A    between atoms: _135  and  _136
REMARK   60  A    between atoms: _135  and  _138
REMARK   61  A    between atoms: _138  and  _139
REMARK   62  A    between atoms: _142  and  _144
REMARK   63  A    between atoms: _144  and  _145
REMARK   64  A    between atoms: _144  and  _147
REMARK   65  A    between atoms: _150  and  _152
REMARK   66  A    between atoms: _152  and  _153
REMARK   67  A    between atoms: _152  and  _155
REMARK   68  A    between atoms: _155  and  _156
REMARK   69  A    between atoms: _161  and  _163
REMARK   70  A    between atoms: _163  and  _164
REMARK   71  A    between atoms: _163  and  _166
REMARK   72  A    between atoms: _169  and  _171
REMARK   73  A    between atoms: _171  and  _172
REMARK   74  A    between atoms: _171  and  _174
REMARK   75  A    between atoms: _174  and  _175
REMARK   76  A    between atoms: _180  and  _181
REMARK   77  A    between atoms: _183  and  _185
REMARK   78  A    between atoms: _185  and  _186
REMARK   79  A    between atoms: _185  and  _188
REMARK   80  A    between atoms: _191  and  _193
REMARK   81  A    between atoms: _193  and  _194
REMARK   82  A    between atoms: _193  and  _196
REMARK   83  A    between atoms: _196  and  _197
REMARK   84  A    between atoms: _200  and  _202
REMARK   85  A    between atoms: _202  and  _203
REMARK   86  A    between atoms: _206  and  _208
REMARK   87  A    between atoms: _208  and  _209
REMARK   88  A    between atoms: _208  and  _211
REMARK   89  A    between atoms: _211  and  _212
REMARK   90  A    between atoms: _214  and  _216
REMARK   91  A    between atoms: _216  and  _217
REMARK   92  A    between atoms: _216  and  _219
REMARK   93  A    between atoms: _219  and  _220
REMARK   94  A    between atoms: _223  and  _225
REMARK   95  A    between atoms: _225  and  _226
REMARK   96  A    between atoms: _229  and  _231
REMARK   97  A    between atoms: _231  and  _232
REMARK   98  A    between atoms: _231  and  _234
REMARK   99  A    between atoms: _234  and  _235
REMARK  100  A    between atoms: _235  and  _236
REMARK  101  A    between atoms: _236  and  _237
REMARK  102  A    between atoms: _237  and  _238
REMARK  103  A    between atoms: _242  and  _244
REMARK  104  A    between atoms: _244  and  _245
REMARK  105  A    between atoms: _244  and  _247
REMARK  106  A    between atoms: _247  and  _248
REMARK  107  A    between atoms: _253  and  _254
REMARK  108  A    between atoms: _256  and  _258
REMARK  109  A    between atoms: _258  and  _259
REMARK  110  A    between atoms: _262  and  _264
REMARK  111  A    between atoms: _264  and  _265
REMARK  112  A    between atoms: _264  and  _267
REMARK  113  A    between atoms: _270  and  _272
REMARK  114  A    between atoms: _272  and  _273
REMARK  115  A    between atoms: _272  and  _275
REMARK  116  A    between atoms: _275  and  _276
REMARK  117  A    between atoms: _276  and  _277
REMARK  118  A    between atoms: _277  and  _278
REMARK  119  A    between atoms: _287  and  _289
REMARK  120  A    between atoms: _289  and  _290
REMARK  121  A    between atoms: _289  and  _292
REMARK  122  A    between atoms: _292  and  _293
REMARK  123  A    between atoms: _298  and  _299
REMARK  124  A    between atoms: _301  and  _303
REMARK  125  A    between atoms: _303  and  _304
REMARK  126  A    between atoms: _303  and  _306
REMARK  127  A    between atoms: _306  and  _307
REMARK  128  A    between atoms: _307  and  _308
REMARK  129  A    between atoms: _308  and  _309
REMARK  130  A    between atoms: _309  and  _310
REMARK  131  A    between atoms: _314  and  _316
REMARK  132  A    between atoms: _316  and  _317
REMARK  133  A    between atoms: _316  and  _319
REMARK  134  A    between atoms: _319  and  _320
REMARK                            x       y       z     vdW  Elec       q    Type
REMARK                         _______ _______ _______ _____ _____    ______ ____
ROOT
ATOM      1  O   HOH     1       9.927  15.864   1.529  0.00  0.00    +0.000 OA
ENDROOT
TORSDOF 0
REMARK  Name = ../refined-set-2016/3pgl/3pgl_pocket.pdb
REMARK  134 active torsions:
REMARK  status: ('A' for Active; 'I' for Inactive)
REMARK    1  A    between atoms: _1  and  _3
REMARK    2  A    between atoms: _3  and  _4
REMARK    3  A    between atoms: _3  and  _6
REMARK    4  A    between atoms: _6  and  _7
REMARK    5  A    between atoms: _10  and  _12
REMARK    6  A    between atoms: _12  and  _13
REMARK    7  A    between atoms: _12  and  _15
REMARK    8  A    between atoms: _15  and  _16
REMARK    9  A    between atoms: _19  and  _21
REMARK   10  A    between atoms: _21  and  _22
REMARK   11  A    between atoms: _21  and  _24
REMARK   12  A    between atoms: _24  and  _25
REMARK   13  A    between atoms: _28  and  _30
REMARK   14  A    between atoms: _30  and  _31
REMARK   15  A    between atoms: _30  and  _33
REMARK   16  A    between atoms: _33  and  _34
REMARK   17  A    between atoms: _34  and  _35
REMARK   18  A    between atoms: _38  and  _40
REMARK   19  A    between atoms: _40  and  _41
REMARK   20  A    between atoms: _40  and  _43
REMARK   21  A    between atoms: _43  and  _44
REMARK   22  A    between atoms: _49  and  _51
REMARK   23  A    between atoms: _51  and  _52
REMARK   24  A    between atoms: _51  and  _54
REMARK   25  A    between atoms: _54  and  _55
REMARK   26  A    between atoms: _57  and  _59
REMARK   27  A    between atoms: _59  and  _60
REMARK   28  A    between atoms: _59  and  _62
REMARK   29  A    between atoms: _62  and  _63
REMARK   30  A    between atoms: _65  and  _67
REMARK   31  A    between atoms: _67  and  _68
REMARK   32  A    between atoms: _67  and  _70
REMARK   33  A    between atoms: _70  and  _71
REMARK   34  A    between atoms: _77  and  _79
REMARK   35  A    between atoms: _79  and  _80
REMARK   36  A    between atoms: _79  and  _82
REMARK   37  A    between atoms: _82  and  _83
REMARK   38  A    between atoms: _83  and  _84
REMARK   39  A    between atoms: _84  and  _85
REMARK   40  A    between atoms: _85  and  _86
REMARK   41  A    between atoms: _90  and  _92
REMARK   42  A    between atoms: _92  and  _93
REMARK   43  A    between atoms: _92  and  _95
REMARK   44  A    between atoms: _95  and  _96
REMARK   45  A    between atoms: _100  and  _101
REMARK   46  A    between atoms: _106  and  _108
REMARK   47  A    between atoms: _108  and  _109
REMARK   48  A    between atoms: _108  and  _111
REMARK   49  A    between atoms: _114  and  _116
REMARK   50  A    between atoms: _116  and  _117
REMARK   51  A    between atoms: _116  and  _119
REMARK   52  A    between atoms: _119  and  _120
REMARK   53  A    between atoms: _120  and  _121
REMARK   54  A    between atoms: _124  and  _126
REMARK   55  A    between atoms: _126  and  _127
REMARK   56  A    between atoms: _126  and  _129
REMARK   57  A    between atoms: _129  and  _130
REMARK   58  A    between atoms: _133  and  _135
REMARK   59  A    between atoms: _135  and  _136
REMARK   60  A    between atoms: _135  and  _138
REMARK   61  A    between atoms: _138  and  _139
REMARK   62  A    between atoms: _142  and  _144
REMARK   63  A    between atoms: _144  and  _145
REMARK   64  A    between atoms: _144  and  _147
REMARK   65  A    between atoms: _150  and  _152
REMARK   66  A    between atoms: _152  and  _153
REMARK   67  A    between atoms: _152  and  _155
REMARK   68  A    between atoms: _155  and  _156
REMARK   69  A    between atoms: _161  and  _163
REMARK   70  A    between atoms: _163  and  _164
REMARK   71  A    between atoms: _163  and  _166
REMARK   72  A    between atoms: _169  and  _171
REMARK   73  A    between atoms: _171  and  _172
REMARK   74  A    between atoms: _171  and  _174
REMARK   75  A    between atoms: _174  and  _175
REMARK   76  A    between atoms: _180  and  _181
REMARK   77  A    between atoms: _183  and  _185
REMARK   78  A    between atoms: _185  and  _186
REMARK   79  A    between atoms: _185  and  _188
REMARK   80  A    between atoms: _191  and  _193
REMARK   81  A    between atoms: _193  and  _194
REMARK   82  A    between atoms: _193  and  _196
REMARK   83  A    between atoms: _196  and  _197
REMARK   84  A    between atoms: _200  and  _202
REMARK   85  A    between atoms: _202  and  _203
REMARK   86  A    between atoms: _206  and  _208
REMARK   87  A    between atoms: _208  and  _209
REMARK   88  A    between atoms: _208  and  _211
REMARK   89  A    between atoms: _211  and  _212
REMARK   90  A    between atoms: _214  and  _216
REMARK   91  A    between atoms: _216  and  _217
REMARK   92  A    between atoms: _216  and  _219
REMARK   93  A    between atoms: _219  and  _220
REMARK   94  A    between atoms: _223  and  _225
REMARK   95  A    between atoms: _225  and  _226
REMARK   96  A    between atoms: _229  and  _231
REMARK   97  A    between atoms: _231  and  _232
REMARK   98  A    between atoms: _231  and  _234
REMARK   99  A    between atoms: _234  and  _235
REMARK  100  A    between atoms: _235  and  _236
REMARK  101  A    between atoms: _236  and  _237
REMARK  102  A    between atoms: _237  and  _238
REMARK  103  A    between atoms: _242  and  _244
REMARK  104  A    between atoms: _244  and  _245
REMARK  105  A    between atoms: _244  and  _247
REMARK  106  A    between atoms: _247  and  _248
REMARK  107  A    between atoms: _253  and  _254
REMARK  108  A    between atoms: _256  and  _258
REMARK  109  A    between atoms: _258  and  _259
REMARK  110  A    between atoms: _262  and  _264
REMARK  111  A    between atoms: _264  and  _265
REMARK  112  A    between atoms: _264  and  _267
REMARK  113  A    between atoms: _270  and  _272
REMARK  114  A    between atoms: _272  and  _273
REMARK  115  A    between atoms: _272  and  _275
REMARK  116  A    between atoms: _275  and  _276
REMARK  117  A    between atoms: _276  and  _277
REMARK  118  A    between atoms: _277  and  _278
REMARK  119  A    between atoms: _287  and  _289
REMARK  120  A    between atoms: _289  and  _290
REMARK  121  A    between atoms: _289  and  _292
REMARK  122  A    between atoms: _292  and  _293
REMARK  123  A    between atoms: _298  and  _299
REMARK  124  A    between atoms: _301  and  _303
REMARK  125  A    between atoms: _303  and  _304
REMARK  126  A    between atoms: _303  and  _306
REMARK  127  A    between atoms: _306  and  _307
REMARK  128  A    between atoms: _307  and  _308
REMARK  129  A    between atoms: _308  and  _309
REMARK  130  A    between atoms: _309  and  _310
REMARK  131  A    between atoms: _314  and  _316
REMARK  132  A    between atoms: _316  and  _317
REMARK  133  A    between atoms: _316  and  _319
REMARK  134  A    between atoms: _319  and  _320
REMARK                            x       y       z     vdW  Elec       q    Type
REMARK                         _______ _______ _______ _____ _____    ______ ____
ROOT
ATOM      1  O   HOH     1      -8.025  11.268 -10.792  0.00  0.00    +0.000 OA
ENDROOT
TORSDOF 0
REMARK  Name = ../refined-set-2016/3pgl/3pgl_pocket.pdb
REMARK  134 active torsions:
REMARK  status: ('A' for Active; 'I' for Inactive)
REMARK    1  A    between atoms: _1  and  _3
REMARK    2  A    between atoms: _3  and  _4
REMARK    3  A    between atoms: _3  and  _6
REMARK    4  A    between atoms: _6  and  _7
REMARK    5  A    between atoms: _10  and  _12
REMARK    6  A    between atoms: _12  and  _13
REMARK    7  A    between atoms: _12  and  _15
REMARK    8  A    between atoms: _15  and  _16
REMARK    9  A    between atoms: _19  and  _21
REMARK   10  A    between atoms: _21  and  _22
REMARK   11  A    between atoms: _21  and  _24
REMARK   12  A    between atoms: _24  and  _25
REMARK   13  A    between atoms: _28  and  _30
REMARK   14  A    between atoms: _30  and  _31
REMARK   15  A    between atoms: _30  and  _33
REMARK   16  A    between atoms: _33  and  _34
REMARK   17  A    between atoms: _34  and  _35
REMARK   18  A    between atoms: _38  and  _40
REMARK   19  A    between atoms: _40  and  _41
REMARK   20  A    between atoms: _40  and  _43
REMARK   21  A    between atoms: _43  and  _44
REMARK   22  A    between atoms: _49  and  _51
REMARK   23  A    between atoms: _51  and  _52
REMARK   24  A    between atoms: _51  and  _54
REMARK   25  A    between atoms: _54  and  _55
REMARK   26  A    between atoms: _57  and  _59
REMARK   27  A    between atoms: _59  and  _60
REMARK   28  A    between atoms: _59  and  _62
REMARK   29  A    between atoms: _62  and  _63
REMARK   30  A    between atoms: _65  and  _67
REMARK   31  A    between atoms: _67  and  _68
REMARK   32  A    between atoms: _67  and  _70
REMARK   33  A    between atoms: _70  and  _71
REMARK   34  A    between atoms: _77  and  _79
REMARK   35  A    between atoms: _79  and  _80
REMARK   36  A    between atoms: _79  and  _82
REMARK   37  A    between atoms: _82  and  _83
REMARK   38  A    between atoms: _83  and  _84
REMARK   39  A    between atoms: _84  and  _85
REMARK   40  A    between atoms: _85  and  _86
REMARK   41  A    between atoms: _90  and  _92
REMARK   42  A    between atoms: _92  and  _93
REMARK   43  A    between atoms: _92  and  _95
REMARK   44  A    between atoms: _95  and  _96
REMARK   45  A    between atoms: _100  and  _101
REMARK   46  A    between atoms: _106  and  _108
REMARK   47  A    between atoms: _108  and  _109
REMARK   48  A    between atoms: _108  and  _111
REMARK   49  A    between atoms: _114  and  _116
REMARK   50  A    between atoms: _116  and  _117
REMARK   51  A    between atoms: _116  and  _119
REMARK   52  A    between atoms: _119  and  _120
REMARK   53  A    between atoms: _120  and  _121
REMARK   54  A    between atoms: _124  and  _126
REMARK   55  A    between atoms: _126  and  _127
REMARK   56  A    between atoms: _126  and  _129
REMARK   57  A    between atoms: _129  and  _130
REMARK   58  A    between atoms: _133  and  _135
REMARK   59  A    between atoms: _135  and  _136
REMARK   60  A    between atoms: _135  and  _138
REMARK   61  A    between atoms: _138  and  _139
REMARK   62  A    between atoms: _142  and  _144
REMARK   63  A    between atoms: _144  and  _145
REMARK   64  A    between atoms: _144  and  _147
REMARK   65  A    between atoms: _150  and  _152
REMARK   66  A    between atoms: _152  and  _153
REMARK   67  A    between atoms: _152  and  _155
REMARK   68  A    between atoms: _155  and  _156
REMARK   69  A    between atoms: _161  and  _163
REMARK   70  A    between atoms: _163  and  _164
REMARK   71  A    between atoms: _163  and  _166
REMARK   72  A    between atoms: _169  and  _171
REMARK   73  A    between atoms: _171  and  _172
REMARK   74  A    between atoms: _171  and  _174
REMARK   75  A    between atoms: _174  and  _175
REMARK   76  A    between atoms: _180  and  _181
REMARK   77  A    between atoms: _183  and  _185
REMARK   78  A    between atoms: _185  and  _186
REMARK   79  A    between atoms: _185  and  _188
REMARK   80  A    between atoms: _191  and  _193
REMARK   81  A    between atoms: _193  and  _194
REMARK   82  A    between atoms: _193  and  _196
REMARK   83  A    between atoms: _196  and  _197
REMARK   84  A    between atoms: _200  and  _202
REMARK   85  A    between atoms: _202  and  _203
REMARK   86  A    between atoms: _206  and  _208
REMARK   87  A    between atoms: _208  and  _209
REMARK   88  A    between atoms: _208  and  _211
REMARK   89  A    between atoms: _211  and  _212
REMARK   90  A    between atoms: _214  and  _216
REMARK   91  A    between atoms: _216  and  _217
REMARK   92  A    between atoms: _216  and  _219
REMARK   93  A    between atoms: _219  and  _220
REMARK   94  A    between atoms: _223  and  _225
REMARK   95  A    between atoms: _225  and  _226
REMARK   96  A    between atoms: _229  and  _231
REMARK   97  A    between atoms: _231  and  _232
REMARK   98  A    between atoms: _231  and  _234
REMARK   99  A    between atoms: _234  and  _235
REMARK  100  A    between atoms: _235  and  _236
REMARK  101  A    between atoms: _236  and  _237
REMARK  102  A    between atoms: _237  and  _238
REMARK  103  A    between atoms: _242  and  _244
REMARK  104  A    between atoms: _244  and  _245
REMARK  105  A    between atoms: _244  and  _247
REMARK  106  A    between atoms: _247  and  _248
REMARK  107  A    between atoms: _253  and  _254
REMARK  108  A    between atoms: _256  and  _258
REMARK  109  A    between atoms: _258  and  _259
REMARK  110  A    between atoms: _262  and  _264
REMARK  111  A    between atoms: _264  and  _265
REMARK  112  A    between atoms: _264  and  _267
REMARK  113  A    between atoms: _270  and  _272
REMARK  114  A    between atoms: _272  and  _273
REMARK  115  A    between atoms: _272  and  _275
REMARK  116  A    between atoms: _275  and  _276
REMARK  117  A    between atoms: _276  and  _277
REMARK  118  A    between atoms: _277  and  _278
REMARK  119  A    between atoms: _287  and  _289
REMARK  120  A    between atoms: _289  and  _290
REMARK  121  A    between atoms: _289  and  _292
REMARK  122  A    between atoms: _292  and  _293
REMARK  123  A    between atoms: _298  and  _299
REMARK  124  A    between atoms: _301  and  _303
REMARK  125  A    between atoms: _303  and  _304
REMARK  126  A    between atoms: _303  and  _306
REMARK  127  A    between atoms: _306  and  _307
REMARK  128  A    between atoms: _307  and  _308
REMARK  129  A    between atoms: _308  and  _309
REMARK  130  A    between atoms: _309  and  _310
REMARK  131  A    between atoms: _314  and  _316
REMARK  132  A    between atoms: _316  and  _317
REMARK  133  A    between atoms: _316  and  _319
REMARK  134  A    between atoms: _319  and  _320
REMARK                            x       y       z     vdW  Elec       q    Type
REMARK                         _______ _______ _______ _____ _____    ______ ____
ROOT
ATOM      1  O   HOH     1      -4.314  15.381  -7.065  0.00  0.00    +0.000 OA
ENDROOT
TORSDOF 0
REMARK  Name = ../refined-set-2016/3pgl/3pgl_pocket.pdb
REMARK  134 active torsions:
REMARK  status: ('A' for Active; 'I' for Inactive)
REMARK    1  A    between atoms: _1  and  _3
REMARK    2  A    between atoms: _3  and  _4
REMARK    3  A    between atoms: _3  and  _6
REMARK    4  A    between atoms: _6  and  _7
REMARK    5  A    between atoms: _10  and  _12
REMARK    6  A    between atoms: _12  and  _13
REMARK    7  A    between atoms: _12  and  _15
REMARK    8  A    between atoms: _15  and  _16
REMARK    9  A    between atoms: _19  and  _21
REMARK   10  A    between atoms: _21  and  _22
REMARK   11  A    between atoms: _21  and  _24
REMARK   12  A    between atoms: _24  and  _25
REMARK   13  A    between atoms: _28  and  _30
REMARK   14  A    between atoms: _30  and  _31
REMARK   15  A    between atoms: _30  and  _33
REMARK   16  A    between atoms: _33  and  _34
REMARK   17  A    between atoms: _34  and  _35
REMARK   18  A    between atoms: _38  and  _40
REMARK   19  A    between atoms: _40  and  _41
REMARK   20  A    between atoms: _40  and  _43
REMARK   21  A    between atoms: _43  and  _44
REMARK   22  A    between atoms: _49  and  _51
REMARK   23  A    between atoms: _51  and  _52
REMARK   24  A    between atoms: _51  and  _54
REMARK   25  A    between atoms: _54  and  _55
REMARK   26  A    between atoms: _57  and  _59
REMARK   27  A    between atoms: _59  and  _60
REMARK   28  A    between atoms: _59  and  _62
REMARK   29  A    between atoms: _62  and  _63
REMARK   30  A    between atoms: _65  and  _67
REMARK   31  A    between atoms: _67  and  _68
REMARK   32  A    between atoms: _67  and  _70
REMARK   33  A    between atoms: _70  and  _71
REMARK   34  A    between atoms: _77  and  _79
REMARK   35  A    between atoms: _79  and  _80
REMARK   36  A    between atoms: _79  and  _82
REMARK   37  A    between atoms: _82  and  _83
REMARK   38  A    between atoms: _83  and  _84
REMARK   39  A    between atoms: _84  and  _85
REMARK   40  A    between atoms: _85  and  _86
REMARK   41  A    between atoms: _90  and  _92
REMARK   42  A    between atoms: _92  and  _93
REMARK   43  A    between atoms: _92  and  _95
REMARK   44  A    between atoms: _95  and  _96
REMARK   45  A    between atoms: _100  and  _101
REMARK   46  A    between atoms: _106  and  _108
REMARK   47  A    between atoms: _108  and  _109
REMARK   48  A    between atoms: _108  and  _111
REMARK   49  A    between atoms: _114  and  _116
REMARK   50  A    between atoms: _116  and  _117
REMARK   51  A    between atoms: _116  and  _119
REMARK   52  A    between atoms: _119  and  _120
REMARK   53  A    between atoms: _120  and  _121
REMARK   54  A    between atoms: _124  and  _126
REMARK   55  A    between atoms: _126  and  _127
REMARK   56  A    between atoms: _126  and  _129
REMARK   57  A    between atoms: _129  and  _130
REMARK   58  A    between atoms: _133  and  _135
REMARK   59  A    between atoms: _135  and  _136
REMARK   60  A    between atoms: _135  and  _138
REMARK   61  A    between atoms: _138  and  _139
REMARK   62  A    between atoms: _142  and  _144
REMARK   63  A    between atoms: _144  and  _145
REMARK   64  A    between atoms: _144  and  _147
REMARK   65  A    between atoms: _150  and  _152
REMARK   66  A    between atoms: _152  and  _153
REMARK   67  A    between atoms: _152  and  _155
REMARK   68  A    between atoms: _155  and  _156
REMARK   69  A    between atoms: _161  and  _163
REMARK   70  A    between atoms: _163  and  _164
REMARK   71  A    between atoms: _163  and  _166
REMARK   72  A    between atoms: _169  and  _171
REMARK   73  A    between atoms: _171  and  _172
REMARK   74  A    between atoms: _171  and  _174
REMARK   75  A    between atoms: _174  and  _175
REMARK   76  A    between atoms: _180  and  _181
REMARK   77  A    between atoms: _183  and  _185
REMARK   78  A    between atoms: _185  and  _186
REMARK   79  A    between atoms: _185  and  _188
REMARK   80  A    between atoms: _191  and  _193
REMARK   81  A    between atoms: _193  and  _194
REMARK   82  A    between atoms: _193  and  _196
REMARK   83  A    between atoms: _196  and  _197
REMARK   84  A    between atoms: _200  and  _202
REMARK   85  A    between atoms: _202  and  _203
REMARK   86  A    between atoms: _206  and  _208
REMARK   87  A    between atoms: _208  and  _209
REMARK   88  A    between atoms: _208  and  _211
REMARK   89  A    between atoms: _211  and  _212
REMARK   90  A    between atoms: _214  and  _216
REMARK   91  A    between atoms: _216  and  _217
REMARK   92  A    between atoms: _216  and  _219
REMARK   93  A    between atoms: _219  and  _220
REMARK   94  A    between atoms: _223  and  _225
REMARK   95  A    between atoms: _225  and  _226
REMARK   96  A    between atoms: _229  and  _231
REMARK   97  A    between atoms: _231  and  _232
REMARK   98  A    between atoms: _231  and  _234
REMARK   99  A    between atoms: _234  and  _235
REMARK  100  A    between atoms: _235  and  _236
REMARK  101  A    between atoms: _236  and  _237
REMARK  102  A    between atoms: _237  and  _238
REMARK  103  A    between atoms: _242  and  _244
REMARK  104  A    between atoms: _244  and  _245
REMARK  105  A    between atoms: _244  and  _247
REMARK  106  A    between atoms: _247  and  _248
REMARK  107  A    between atoms: _253  and  _254
REMARK  108  A    between atoms: _256  and  _258
REMARK  109  A    between atoms: _258  and  _259
REMARK  110  A    between atoms: _262  and  _264
REMARK  111  A    between atoms: _264  and  _265
REMARK  112  A    between atoms: _264  and  _267
REMARK  113  A    between atoms: _270  and  _272
REMARK  114  A    between atoms: _272  and  _273
REMARK  115  A    between atoms: _272  and  _275
REMARK  116  A    between atoms: _275  and  _276
REMARK  117  A    between atoms: _276  and  _277
REMARK  118  A    between atoms: _277  and  _278
REMARK  119  A    between atoms: _287  and  _289
REMARK  120  A    between atoms: _289  and  _290
REMARK  121  A    between atoms: _289  and  _292
REMARK  122  A    between atoms: _292  and  _293
REMARK  123  A    between atoms: _298  and  _299
REMARK  124  A    between atoms: _301  and  _303
REMARK  125  A    between atoms: _303  and  _304
REMARK  126  A    between atoms: _303  and  _306
REMARK  127  A    between atoms: _306  and  _307
REMARK  128  A    between atoms: _307  and  _308
REMARK  129  A    between atoms: _308  and  _309
REMARK  130  A    between atoms: _309  and  _310
REMARK  131  A    between atoms: _314  and  _316
REMARK  132  A    between atoms: _316  and  _317
REMARK  133  A    between atoms: _316  and  _319
REMARK  134  A    between atoms: _319  and  _320
REMARK                            x       y       z     vdW  Elec       q    Type
REMARK                         _______ _______ _______ _____ _____    ______ ____
ROOT
ATOM      1  O   HOH     1       1.346   2.185 -13.594  0.00  0.00    +0.000 OA
ENDROOT
TORSDOF 0
REMARK  Name = ../refined-set-2016/3pgl/3pgl_pocket.pdb
REMARK  134 active torsions:
REMARK  status: ('A' for Active; 'I' for Inactive)
REMARK    1  A    between atoms: _1  and  _3
REMARK    2  A    between atoms: _3  and  _4
REMARK    3  A    between atoms: _3  and  _6
REMARK    4  A    between atoms: _6  and  _7
REMARK    5  A    between atoms: _10  and  _12
REMARK    6  A    between atoms: _12  and  _13
REMARK    7  A    between atoms: _12  and  _15
REMARK    8  A    between atoms: _15  and  _16
REMARK    9  A    between atoms: _19  and  _21
REMARK   10  A    between atoms: _21  and  _22
REMARK   11  A    between atoms: _21  and  _24
REMARK   12  A    between atoms: _24  and  _25
REMARK   13  A    between atoms: _28  and  _30
REMARK   14  A    between atoms: _30  and  _31
REMARK   15  A    between atoms: _30  and  _33
REMARK   16  A    between atoms: _33  and  _34
REMARK   17  A    between atoms: _34  and  _35
REMARK   18  A    between atoms: _38  and  _40
REMARK   19  A    between atoms: _40  and  _41
REMARK   20  A    between atoms: _40  and  _43
REMARK   21  A    between atoms: _43  and  _44
REMARK   22  A    between atoms: _49  and  _51
REMARK   23  A    between atoms: _51  and  _52
REMARK   24  A    between atoms: _51  and  _54
REMARK   25  A    between atoms: _54  and  _55
REMARK   26  A    between atoms: _57  and  _59
REMARK   27  A    between atoms: _59  and  _60
REMARK   28  A    between atoms: _59  and  _62
REMARK   29  A    between atoms: _62  and  _63
REMARK   30  A    between atoms: _65  and  _67
REMARK   31  A    between atoms: _67  and  _68
REMARK   32  A    between atoms: _67  and  _70
REMARK   33  A    between atoms: _70  and  _71
REMARK   34  A    between atoms: _77  and  _79
REMARK   35  A    between atoms: _79  and  _80
REMARK   36  A    between atoms: _79  and  _82
REMARK   37  A    between atoms: _82  and  _83
REMARK   38  A    between atoms: _83  and  _84
REMARK   39  A    between atoms: _84  and  _85
REMARK   40  A    between atoms: _85  and  _86
REMARK   41  A    between atoms: _90  and  _92
REMARK   42  A    between atoms: _92  and  _93
REMARK   43  A    between atoms: _92  and  _95
REMARK   44  A    between atoms: _95  and  _96
REMARK   45  A    between atoms: _100  and  _101
REMARK   46  A    between atoms: _106  and  _108
REMARK   47  A    between atoms: _108  and  _109
REMARK   48  A    between atoms: _108  and  _111
REMARK   49  A    between atoms: _114  and  _116
REMARK   50  A    between atoms: _116  and  _117
REMARK   51  A    between atoms: _116  and  _119
REMARK   52  A    between atoms: _119  and  _120
REMARK   53  A    between atoms: _120  and  _121
REMARK   54  A    between atoms: _124  and  _126
REMARK   55  A    between atoms: _126  and  _127
REMARK   56  A    between atoms: _126  and  _129
REMARK   57  A    between atoms: _129  and  _130
REMARK   58  A    between atoms: _133  and  _135
REMARK   59  A    between atoms: _135  and  _136
REMARK   60  A    between atoms: _135  and  _138
REMARK   61  A    between atoms: _138  and  _139
REMARK   62  A    between atoms: _142  and  _144
REMARK   63  A    between atoms: _144  and  _145
REMARK   64  A    between atoms: _144  and  _147
REMARK   65  A    between atoms: _150  and  _152
REMARK   66  A    between atoms: _152  and  _153
REMARK   67  A    between atoms: _152  and  _155
REMARK   68  A    between atoms: _155  and  _156
REMARK   69  A    between atoms: _161  and  _163
REMARK   70  A    between atoms: _163  and  _164
REMARK   71  A    between atoms: _163  and  _166
REMARK   72  A    between atoms: _169  and  _171
REMARK   73  A    between atoms: _171  and  _172
REMARK   74  A    between atoms: _171  and  _174
REMARK   75  A    between atoms: _174  and  _175
REMARK   76  A    between atoms: _180  and  _181
REMARK   77  A    between atoms: _183  and  _185
REMARK   78  A    between atoms: _185  and  _186
REMARK   79  A    between atoms: _185  and  _188
REMARK   80  A    between atoms: _191  and  _193
REMARK   81  A    between atoms: _193  and  _194
REMARK   82  A    between atoms: _193  and  _196
REMARK   83  A    between atoms: _196  and  _197
REMARK   84  A    between atoms: _200  and  _202
REMARK   85  A    between atoms: _202  and  _203
REMARK   86  A    between atoms: _206  and  _208
REMARK   87  A    between atoms: _208  and  _209
REMARK   88  A    between atoms: _208  and  _211
REMARK   89  A    between atoms: _211  and  _212
REMARK   90  A    between atoms: _214  and  _216
REMARK   91  A    between atoms: _216  and  _217
REMARK   92  A    between atoms: _216  and  _219
REMARK   93  A    between atoms: _219  and  _220
REMARK   94  A    between atoms: _223  and  _225
REMARK   95  A    between atoms: _225  and  _226
REMARK   96  A    between atoms: _229  and  _231
REMARK   97  A    between atoms: _231  and  _232
REMARK   98  A    between atoms: _231  and  _234
REMARK   99  A    between atoms: _234  and  _235
REMARK  100  A    between atoms: _235  and  _236
REMARK  101  A    between atoms: _236  and  _237
REMARK  102  A    between atoms: _237  and  _238
REMARK  103  A    between atoms: _242  and  _244
REMARK  104  A    between atoms: _244  and  _245
REMARK  105  A    between atoms: _244  and  _247
REMARK  106  A    between atoms: _247  and  _248
REMARK  107  A    between atoms: _253  and  _254
REMARK  108  A    between atoms: _256  and  _258
REMARK  109  A    between atoms: _258  and  _259
REMARK  110  A    between atoms: _262  and  _264
REMARK  111  A    between atoms: _264  and  _265
REMARK  112  A    between atoms: _264  and  _267
REMARK  113  A    between atoms: _270  and  _272
REMARK  114  A    between atoms: _272  and  _273
REMARK  115  A    between atoms: _272  and  _275
REMARK  116  A    between atoms: _275  and  _276
REMARK  117  A    between atoms: _276  and  _277
REMARK  118  A    between atoms: _277  and  _278
REMARK  119  A    between atoms: _287  and  _289
REMARK  120  A    between atoms: _289  and  _290
REMARK  121  A    between atoms: _289  and  _292
REMARK  122  A    between atoms: _292  and  _293
REMARK  123  A    between atoms: _298  and  _299
REMARK  124  A    between atoms: _301  and  _303
REMARK  125  A    between atoms: _303  and  _304
REMARK  126  A    between atoms: _303  and  _306
REMARK  127  A    between atoms: _306  and  _307
REMARK  128  A    between atoms: _307  and  _308
REMARK  129  A    between atoms: _308  and  _309
REMARK  130  A    between atoms: _309  and  _310
REMARK  131  A    between atoms: _314  and  _316
REMARK  132  A    between atoms: _316  and  _317
REMARK  133  A    between atoms: _316  and  _319
REMARK  134  A    between atoms: _319  and  _320
REMARK                            x       y       z     vdW  Elec       q    Type
REMARK                         _______ _______ _______ _____ _____    ______ ____
ROOT
ATOM      1  O   HOH     1       1.188  -1.011  -5.751  0.00  0.00    +0.000 OA
ENDROOT
TORSDOF 0
REMARK  Name = ../refined-set-2016/3pgl/3pgl_pocket.pdb
REMARK  134 active torsions:
REMARK  status: ('A' for Active; 'I' for Inactive)
REMARK    1  A    between atoms: _1  and  _3
REMARK    2  A    between atoms: _3  and  _4
REMARK    3  A    between atoms: _3  and  _6
REMARK    4  A    between atoms: _6  and  _7
REMARK    5  A    between atoms: _10  and  _12
REMARK    6  A    between atoms: _12  and  _13
REMARK    7  A    between atoms: _12  and  _15
REMARK    8  A    between atoms: _15  and  _16
REMARK    9  A    between atoms: _19  and  _21
REMARK   10  A    between atoms: _21  and  _22
REMARK   11  A    between atoms: _21  and  _24
REMARK   12  A    between atoms: _24  and  _25
REMARK   13  A    between atoms: _28  and  _30
REMARK   14  A    between atoms: _30  and  _31
REMARK   15  A    between atoms: _30  and  _33
REMARK   16  A    between atoms: _33  and  _34
REMARK   17  A    between atoms: _34  and  _35
REMARK   18  A    between atoms: _38  and  _40
REMARK   19  A    between atoms: _40  and  _41
REMARK   20  A    between atoms: _40  and  _43
REMARK   21  A    between atoms: _43  and  _44
REMARK   22  A    between atoms: _49  and  _51
REMARK   23  A    between atoms: _51  and  _52
REMARK   24  A    between atoms: _51  and  _54
REMARK   25  A    between atoms: _54  and  _55
REMARK   26  A    between atoms: _57  and  _59
REMARK   27  A    between atoms: _59  and  _60
REMARK   28  A    between atoms: _59  and  _62
REMARK   29  A    between atoms: _62  and  _63
REMARK   30  A    between atoms: _65  and  _67
REMARK   31  A    between atoms: _67  and  _68
REMARK   32  A    between atoms: _67  and  _70
REMARK   33  A    between atoms: _70  and  _71
REMARK   34  A    between atoms: _77  and  _79
REMARK   35  A    between atoms: _79  and  _80
REMARK   36  A    between atoms: _79  and  _82
REMARK   37  A    between atoms: _82  and  _83
REMARK   38  A    between atoms: _83  and  _84
REMARK   39  A    between atoms: _84  and  _85
REMARK   40  A    between atoms: _85  and  _86
REMARK   41  A    between atoms: _90  and  _92
REMARK   42  A    between atoms: _92  and  _93
REMARK   43  A    between atoms: _92  and  _95
REMARK   44  A    between atoms: _95  and  _96
REMARK   45  A    between atoms: _100  and  _101
REMARK   46  A    between atoms: _106  and  _108
REMARK   47  A    between atoms: _108  and  _109
REMARK   48  A    between atoms: _108  and  _111
REMARK   49  A    between atoms: _114  and  _116
REMARK   50  A    between atoms: _116  and  _117
REMARK   51  A    between atoms: _116  and  _119
REMARK   52  A    between atoms: _119  and  _120
REMARK   53  A    between atoms: _120  and  _121
REMARK   54  A    between atoms: _124  and  _126
REMARK   55  A    between atoms: _126  and  _127
REMARK   56  A    between atoms: _126  and  _129
REMARK   57  A    between atoms: _129  and  _130
REMARK   58  A    between atoms: _133  and  _135
REMARK   59  A    between atoms: _135  and  _136
REMARK   60  A    between atoms: _135  and  _138
REMARK   61  A    between atoms: _138  and  _139
REMARK   62  A    between atoms: _142  and  _144
REMARK   63  A    between atoms: _144  and  _145
REMARK   64  A    between atoms: _144  and  _147
REMARK   65  A    between atoms: _150  and  _152
REMARK   66  A    between atoms: _152  and  _153
REMARK   67  A    between atoms: _152  and  _155
REMARK   68  A    between atoms: _155  and  _156
REMARK   69  A    between atoms: _161  and  _163
REMARK   70  A    between atoms: _163  and  _164
REMARK   71  A    between atoms: _163  and  _166
REMARK   72  A    between atoms: _169  and  _171
REMARK   73  A    between atoms: _171  and  _172
REMARK   74  A    between atoms: _171  and  _174
REMARK   75  A    between atoms: _174  and  _175
REMARK   76  A    between atoms: _180  and  _181
REMARK   77  A    between atoms: _183  and  _185
REMARK   78  A    between atoms: _185  and  _186
REMARK   79  A    between atoms: _185  and  _188
REMARK   80  A    between atoms: _191  and  _193
REMARK   81  A    between atoms: _193  and  _194
REMARK   82  A    between atoms: _193  and  _196
REMARK   83  A    between atoms: _196  and  _197
REMARK   84  A    between atoms: _200  and  _202
REMARK   85  A    between atoms: _202  and  _203
REMARK   86  A    between atoms: _206  and  _208
REMARK   87  A    between atoms: _208  and  _209
REMARK   88  A    between atoms: _208  and  _211
REMARK   89  A    between atoms: _211  and  _212
REMARK   90  A    between atoms: _214  and  _216
REMARK   91  A    between atoms: _216  and  _217
REMARK   92  A    between atoms: _216  and  _219
REMARK   93  A    between atoms: _219  and  _220
REMARK   94  A    between atoms: _223  and  _225
REMARK   95  A    between atoms: _225  and  _226
REMARK   96  A    between atoms: _229  and  _231
REMARK   97  A    between atoms: _231  and  _232
REMARK   98  A    between atoms: _231  and  _234
REMARK   99  A    between atoms: _234  and  _235
REMARK  100  A    between atoms: _235  and  _236
REMARK  101  A    between atoms: _236  and  _237
REMARK  102  A    between atoms: _237  and  _238
REMARK  103  A    between atoms: _242  and  _244
REMARK  104  A    between atoms: _244  and  _245
REMARK  105  A    between atoms: _244  and  _247
REMARK  106  A    between atoms: _247  and  _248
REMARK  107  A    between atoms: _253  and  _254
REMARK  108  A    between atoms: _256  and  _258
REMARK  109  A    between atoms: _258  and  _259
REMARK  110  A    between atoms: _262  and  _264
REMARK  111  A    between atoms: _264  and  _265
REMARK  112  A    between atoms: _264  and  _267
REMARK  113  A    between atoms: _270  and  _272
REMARK  114  A    between atoms: _272  and  _273
REMARK  115  A    between atoms: _272  and  _275
REMARK  116  A    between atoms: _275  and  _276
REMARK  117  A    between atoms: _276  and  _277
REMARK  118  A    between atoms: _277  and  _278
REMARK  119  A    between atoms: _287  and  _289
REMARK  120  A    between atoms: _289  and  _290
REMARK  121  A    between atoms: _289  and  _292
REMARK  122  A    between atoms: _292  and  _293
REMARK  123  A    between atoms: _298  and  _299
REMARK  124  A    between atoms: _301  and  _303
REMARK  125  A    between atoms: _303  and  _304
REMARK  126  A    between atoms: _303  and  _306
REMARK  127  A    between atoms: _306  and  _307
REMARK  128  A    between atoms: _307  and  _308
REMARK  129  A    between atoms: _308  and  _309
REMARK  130  A    between atoms: _309  and  _310
REMARK  131  A    between atoms: _314  and  _316
REMARK  132  A    between atoms: _316  and  _317
REMARK  133  A    between atoms: _316  and  _319
REMARK  134  A    between atoms: _319  and  _320
REMARK                            x       y       z     vdW  Elec       q    Type
REMARK                         _______ _______ _______ _____ _____    ______ ____
ROOT
ATOM      1  O   HOH     1      -0.641   0.948 -11.562  0.00  0.00    +0.000 OA
ENDROOT
TORSDOF 0
