REMARK  Name = ../refined-set-2016/2pqb/2pqb_pocket.pdb
REMARK  250 active torsions:
REMARK  status: ('A' for Active; 'I' for Inactive)
REMARK    1  A    between atoms: _1  and  _3
REMARK    2  A    between atoms: _3  and  _4
REMARK    3  A    between atoms: _3  and  _6
REMARK    4  A    between atoms: _6  and  _7
REMARK    5  A    between atoms: _10  and  _12
REMARK    6  A    between atoms: _12  and  _13
REMARK    7  A    between atoms: _12  and  _15
REMARK    8  A    between atoms: _15  and  _16
REMARK    9  A    between atoms: _16  and  _17
REMARK   10  A    between atoms: _17  and  _18
REMARK   11  A    between atoms: _18  and  _19
REMARK   12  A    between atoms: _23  and  _25
REMARK   13  A    between atoms: _25  and  _26
REMARK   14  A    between atoms: _25  and  _28
REMARK   15  A    between atoms: _28  and  _29
REMARK   16  A    between atoms: _31  and  _33
REMARK   17  A    between atoms: _33  and  _34
REMARK   18  A    between atoms: _33  and  _36
REMARK   19  A    between atoms: _36  and  _37
REMARK   20  A    between atoms: _40  and  _42
REMARK   21  A    between atoms: _42  and  _43
REMARK   22  A    between atoms: _42  and  _45
REMARK   23  A    between atoms: _45  and  _46
REMARK   24  A    between atoms: _48  and  _50
REMARK   25  A    between atoms: _50  and  _51
REMARK   26  A    between atoms: _50  and  _53
REMARK   27  A    between atoms: _53  and  _54
REMARK   28  A    between atoms: _59  and  _61
REMARK   29  A    between atoms: _61  and  _62
REMARK   30  A    between atoms: _61  and  _64
REMARK   31  A    between atoms: _64  and  _65
REMARK   32  A    between atoms: _65  and  _66
REMARK   33  A    between atoms: _66  and  _67
REMARK   34  A    between atoms: _76  and  _78
REMARK   35  A    between atoms: _78  and  _79
REMARK   36  A    between atoms: _78  and  _81
REMARK   37  A    between atoms: _81  and  _82
REMARK   38  A    between atoms: _85  and  _87
REMARK   39  A    between atoms: _87  and  _88
REMARK   40  A    between atoms: _87  and  _90
REMARK   41  A    between atoms: _90  and  _91
REMARK   42  A    between atoms: _94  and  _96
REMARK   43  A    between atoms: _96  and  _97
REMARK   44  A    between atoms: _96  and  _99
REMARK   45  A    between atoms: _99  and  _100
REMARK   46  A    between atoms: _106  and  _108
REMARK   47  A    between atoms: _108  and  _109
REMARK   48  A    between atoms: _108  and  _111
REMARK   49  A    between atoms: _111  and  _112
REMARK   50  A    between atoms: _117  and  _119
REMARK   51  A    between atoms: _119  and  _120
REMARK   52  A    between atoms: _123  and  _125
REMARK   53  A    between atoms: _125  and  _126
REMARK   54  A    between atoms: _129  and  _131
REMARK   55  A    between atoms: _131  and  _132
REMARK   56  A    between atoms: _131  and  _134
REMARK   57  A    between atoms: _134  and  _135
REMARK   58  A    between atoms: _138  and  _140
REMARK   59  A    between atoms: _140  and  _141
REMARK   60  A    between atoms: _143  and  _145
REMARK   61  A    between atoms: _145  and  _146
REMARK   62  A    between atoms: _145  and  _148
REMARK   63  A    between atoms: _150  and  _152
REMARK   64  A    between atoms: _152  and  _153
REMARK   65  A    between atoms: _152  and  _155
REMARK   66  A    between atoms: _155  and  _156
REMARK   67  A    between atoms: _156  and  _157
REMARK   68  A    between atoms: _157  and  _158
REMARK   69  A    between atoms: _167  and  _169
REMARK   70  A    between atoms: _169  and  _170
REMARK   71  A    between atoms: _169  and  _172
REMARK   72  A    between atoms: _172  and  _173
REMARK   73  A    between atoms: _176  and  _178
REMARK   74  A    between atoms: _178  and  _179
REMARK   75  A    between atoms: _178  and  _181
REMARK   76  A    between atoms: _181  and  _182
REMARK   77  A    between atoms: _184  and  _186
REMARK   78  A    between atoms: _186  and  _187
REMARK   79  A    between atoms: _186  and  _189
REMARK   80  A    between atoms: _189  and  _190
REMARK   81  A    between atoms: _193  and  _195
REMARK   82  A    between atoms: _195  and  _196
REMARK   83  A    between atoms: _195  and  _198
REMARK   84  A    between atoms: _198  and  _199
REMARK   85  A    between atoms: _199  and  _200
REMARK   86  A    between atoms: _200  and  _201
REMARK   87  A    between atoms: _211  and  _212
REMARK   88  A    between atoms: _217  and  _219
REMARK   89  A    between atoms: _219  and  _220
REMARK   90  A    between atoms: _219  and  _222
REMARK   91  A    between atoms: _222  and  _223
REMARK   92  A    between atoms: _223  and  _224
REMARK   93  A    between atoms: _224  and  _225
REMARK   94  A    between atoms: _234  and  _236
REMARK   95  A    between atoms: _236  and  _237
REMARK   96  A    between atoms: _236  and  _239
REMARK   97  A    between atoms: _242  and  _244
REMARK   98  A    between atoms: _244  and  _245
REMARK   99  A    between atoms: _244  and  _247
REMARK  100  A    between atoms: _250  and  _252
REMARK  101  A    between atoms: _252  and  _253
REMARK  102  A    between atoms: _252  and  _255
REMARK  103  A    between atoms: _255  and  _256
REMARK  104  A    between atoms: _256  and  _257
REMARK  105  A    between atoms: _259  and  _261
REMARK  106  A    between atoms: _261  and  _262
REMARK  107  A    between atoms: _265  and  _267
REMARK  108  A    between atoms: _267  and  _268
REMARK  109  A    between atoms: _267  and  _270
REMARK  110  A    between atoms: _270  and  _271
REMARK  111  A    between atoms: _273  and  _275
REMARK  112  A    between atoms: _275  and  _276
REMARK  113  A    between atoms: _279  and  _281
REMARK  114  A    between atoms: _281  and  _282
REMARK  115  A    between atoms: _281  and  _284
REMARK  116  A    between atoms: _284  and  _285
REMARK  117  A    between atoms: _285  and  _286
REMARK  118  A    between atoms: _291  and  _293
REMARK  119  A    between atoms: _293  and  _294
REMARK  120  A    between atoms: _293  and  _296
REMARK  121  A    between atoms: _299  and  _301
REMARK  122  A    between atoms: _301  and  _302
REMARK  123  A    between atoms: _301  and  _304
REMARK  124  A    between atoms: _304  and  _305
REMARK  125  A    between atoms: _305  and  _306
REMARK  126  A    between atoms: _306  and  _307
REMARK  127  A    between atoms: _307  and  _308
REMARK  128  A    between atoms: _312  and  _314
REMARK  129  A    between atoms: _314  and  _315
REMARK  130  A    between atoms: _314  and  _317
REMARK  131  A    between atoms: _317  and  _318
REMARK  132  A    between atoms: _320  and  _322
REMARK  133  A    between atoms: _322  and  _323
REMARK  134  A    between atoms: _326  and  _328
REMARK  135  A    between atoms: _328  and  _329
REMARK  136  A    between atoms: _328  and  _331
REMARK  137  A    between atoms: _331  and  _332
REMARK  138  A    between atoms: _335  and  _337
REMARK  139  A    between atoms: _337  and  _338
REMARK  140  A    between atoms: _337  and  _340
REMARK  141  A    between atoms: _340  and  _341
REMARK  142  A    between atoms: _341  and  _342
REMARK  143  A    between atoms: _342  and  _343
REMARK  144  A    between atoms: _352  and  _354
REMARK  145  A    between atoms: _354  and  _355
REMARK  146  A    between atoms: _354  and  _357
REMARK  147  A    between atoms: _357  and  _358
REMARK  148  A    between atoms: _361  and  _363
REMARK  149  A    between atoms: _363  and  _364
REMARK  150  A    between atoms: _363  and  _366
REMARK  151  A    between atoms: _366  and  _367
REMARK  152  A    between atoms: _372  and  _374
REMARK  153  A    between atoms: _374  and  _375
REMARK  154  A    between atoms: _374  and  _377
REMARK  155  A    between atoms: _377  and  _378
REMARK  156  A    between atoms: _381  and  _383
REMARK  157  A    between atoms: _383  and  _384
REMARK  158  A    between atoms: _383  and  _386
REMARK  159  A    between atoms: _386  and  _387
REMARK  160  A    between atoms: _390  and  _392
REMARK  161  A    between atoms: _392  and  _393
REMARK  162  A    between atoms: _392  and  _395
REMARK  163  A    between atoms: _395  and  _396
REMARK  164  A    between atoms: _398  and  _400
REMARK  165  A    between atoms: _400  and  _401
REMARK  166  A    between atoms: _400  and  _403
REMARK  167  A    between atoms: _403  and  _404
REMARK  168  A    between atoms: _404  and  _405
REMARK  169  A    between atoms: _405  and  _406
REMARK  170  A    between atoms: _415  and  _417
REMARK  171  A    between atoms: _417  and  _418
REMARK  172  A    between atoms: _422  and  _423
REMARK  173  A    between atoms: _428  and  _430
REMARK  174  A    between atoms: _430  and  _431
REMARK  175  A    between atoms: _430  and  _433
REMARK  176  A    between atoms: _433  and  _434
REMARK  177  A    between atoms: _434  and  _435
REMARK  178  A    between atoms: _437  and  _439
REMARK  179  A    between atoms: _439  and  _440
REMARK  180  A    between atoms: _439  and  _442
REMARK  181  A    between atoms: _442  and  _443
REMARK  182  A    between atoms: _446  and  _448
REMARK  183  A    between atoms: _448  and  _449
REMARK  184  A    between atoms: _448  and  _451
REMARK  185  A    between atoms: _451  and  _452
REMARK  186  A    between atoms: _455  and  _457
REMARK  187  A    between atoms: _457  and  _458
REMARK  188  A    between atoms: _457  and  _460
REMARK  189  A    between atoms: _460  and  _461
REMARK  190  A    between atoms: _461  and  _462
REMARK  191  A    between atoms: _465  and  _467
REMARK  192  A    between atoms: _467  and  _468
REMARK  193  A    between atoms: _467  and  _470
REMARK  194  A    between atoms: _470  and  _471
REMARK  195  A    between atoms: _471  and  _472
REMARK  196  A    between atoms: _475  and  _477
REMARK  197  A    between atoms: _477  and  _478
REMARK  198  A    between atoms: _477  and  _480
REMARK  199  A    between atoms: _480  and  _481
REMARK  200  A    between atoms: _484  and  _486
REMARK  201  A    between atoms: _486  and  _487
REMARK  202  A    between atoms: _486  and  _489
REMARK  203  A    between atoms: _492  and  _494
REMARK  204  A    between atoms: _494  and  _495
REMARK  205  A    between atoms: _494  and  _497
REMARK  206  A    between atoms: _497  and  _498
REMARK  207  A    between atoms: _498  and  _499
REMARK  208  A    between atoms: _499  and  _500
REMARK  209  A    between atoms: _500  and  _501
REMARK  210  A    between atoms: _505  and  _507
REMARK  211  A    between atoms: _507  and  _508
REMARK  212  A    between atoms: _507  and  _510
REMARK  213  A    between atoms: _510  and  _511
REMARK  214  A    between atoms: _511  and  _512
REMARK  215  A    between atoms: _515  and  _517
REMARK  216  A    between atoms: _517  and  _518
REMARK  217  A    between atoms: _517  and  _520
REMARK  218  A    between atoms: _520  and  _521
REMARK  219  A    between atoms: _523  and  _525
REMARK  220  A    between atoms: _525  and  _526
REMARK  221  A    between atoms: _525  and  _528
REMARK  222  A    between atoms: _528  and  _529
REMARK  223  A    between atoms: _529  and  _530
REMARK  224  A    between atoms: _530  and  _531
REMARK  225  A    between atoms: _540  and  _542
REMARK  226  A    between atoms: _542  and  _543
REMARK  227  A    between atoms: _542  and  _545
REMARK  228  A    between atoms: _545  and  _546
REMARK  229  A    between atoms: _549  and  _551
REMARK  230  A    between atoms: _551  and  _552
REMARK  231  A    between atoms: _551  and  _554
REMARK  232  A    between atoms: _554  and  _555
REMARK  233  A    between atoms: _560  and  _562
REMARK  234  A    between atoms: _562  and  _563
REMARK  235  A    between atoms: _562  and  _565
REMARK  236  A    between atoms: _565  and  _566
REMARK  237  A    between atoms: _566  and  _567
REMARK  238  A    between atoms: _567  and  _568
REMARK  239  A    between atoms: _577  and  _579
REMARK  240  A    between atoms: _579  and  _580
REMARK  241  A    between atoms: _579  and  _582
REMARK  242  A    between atoms: _582  and  _583
REMARK  243  A    between atoms: _586  and  _588
REMARK  244  A    between atoms: _588  and  _589
REMARK  245  A    between atoms: _588  and  _591
REMARK  246  A    between atoms: _591  and  _592
REMARK  247  A    between atoms: _595  and  _597
REMARK  248  A    between atoms: _597  and  _598
REMARK  249  A    between atoms: _597  and  _600
REMARK  250  A    between atoms: _600  and  _601
REMARK                            x       y       z     vdW  Elec       q    Type
REMARK                         _______ _______ _______ _____ _____    ______ ____
ROOT
ATOM      1  C   ILE A   4    -125.847  33.889 137.461  0.00  0.00    +0.241 C 
ATOM      2  O   ILE A   4    -124.822  33.527 138.040  0.00  0.00    -0.273 OA
ATOM      3  N   SER A   5    -127.054  33.420 137.782  0.00  0.00    -0.295 N 
ATOM      4  H   SER A   5    -127.893  33.767 137.275  0.00  0.00    +0.150 HD
ENDROOT
BRANCH   3   5
ATOM      5  CA  SER A   5    -127.210  32.418 138.845  0.00  0.00    +0.178 C 
BRANCH   5   6
ATOM      6  C   SER A   5    -126.490  31.108 138.472  0.00  0.00    +0.243 C 
ATOM      7  O   SER A   5    -125.760  30.528 139.305  0.00  0.00    -0.273 OA
ATOM      8  N   HIS A   6    -126.666  30.646 137.231  0.00  0.00    -0.297 N 
ATOM      9  H   HIS A   6    -127.289  31.158 136.575  0.00  0.00    +0.150 HD
BRANCH   8  10
ATOM     10  CA  HIS A   6    -125.982  29.412 136.781  0.00  0.00    +0.155 C 
BRANCH  10  11
ATOM     11  C   HIS A   6    -124.466  29.602 136.974  0.00  0.00    +0.241 C 
ATOM     12  O   HIS A   6    -123.765  28.729 137.510  0.00  0.00    -0.273 OA
ATOM     13  N   ARG A   7    -123.954  30.739 136.505  0.00  0.00    -0.298 N 
ATOM     14  H   ARG A   7    -124.576  31.457 136.082  0.00  0.00    +0.150 HD
BRANCH  13  15
ATOM     15  CA  ARG A   7    -122.504  30.973 136.589  0.00  0.00    +0.137 C 
BRANCH  15  16
ATOM     16  C   ARG A   7    -121.981  31.162 138.022  0.00  0.00    +0.227 C 
ATOM     17  O   ARG A   7    -120.802  30.871 138.298  0.00  0.00    -0.286 OA
ENDBRANCH  15  16
BRANCH  15  18
ATOM     18  CB  ARG A   7    -122.105  32.155 135.692  0.00  0.00    +0.031 C 
BRANCH  18  19
ATOM     19  CG  ARG A   7    -122.297  31.900 134.182  0.00  0.00    +0.045 C 
BRANCH  19  20
ATOM     20  CD  ARG A   7    -122.385  33.228 133.372  0.00  0.00    +0.174 C 
BRANCH  20  21
ATOM     21  NE  ARG A   7    -122.412  33.012 131.905  0.00  0.00    -0.265 N 
ATOM     22  HE  ARG A   7    -121.529  33.185 131.384  0.00  0.00    +0.259 HD
ATOM     23  CZ  ARG A   7    -123.472  32.614 131.194  0.00  0.00    +0.342 C 
ATOM     24  NH2 ARG A   7    -124.633  32.370 131.782  0.00  0.00    -0.292 N 
ATOM     25 HH21 ARG A   7    -124.730  32.487 132.811  0.00  0.00    +0.255 HD
ATOM     26 HH22 ARG A   7    -125.448  32.061 131.215  0.00  0.00    +0.255 HD
ATOM     27  NH1 ARG A   7    -123.376  32.453 129.869  0.00  0.00    -0.292 N 
ATOM     28 HH11 ARG A   7    -122.473  32.638 129.387  0.00  0.00    +0.255 HD
ATOM     29 HH12 ARG A   7    -124.204  32.143 129.321  0.00  0.00    +0.255 HD
ENDBRANCH  20  21
ENDBRANCH  19  20
ENDBRANCH  18  19
ENDBRANCH  15  18
ENDBRANCH  13  15
ENDBRANCH  10  11
BRANCH  10  30
ATOM     30  CB  HIS A   6    -126.158  29.153 135.268  0.00  0.00    +0.076 C 
BRANCH  30  31
ATOM     31  CG  HIS A   6    -127.428  28.456 134.881  0.00  0.00    +0.082 A 
ATOM     32  ND1 HIS A   6    -127.756  27.190 135.327  0.00  0.00    -0.227 NA
ATOM     33  CE1 HIS A   6    -128.887  26.809 134.754  0.00  0.00    +0.199 A 
ATOM     34  NE2 HIS A   6    -129.305  27.780 133.957  0.00  0.00    -0.221 NA
ATOM     35  CD2 HIS A   6    -128.414  28.823 134.023  0.00  0.00    +0.115 A 
ENDBRANCH  30  31
ENDBRANCH  10  30
ENDBRANCH   8  10
ENDBRANCH   5   6
BRANCH   5  36
ATOM     36  CB  SER A   5    -128.702  32.163 139.123  0.00  0.00    +0.166 C 
BRANCH  36  37
ATOM     37  OG  SER A   5    -129.279  33.318 139.715  0.00  0.00    -0.380 OA
ATOM     38  H   SER A   5    -129.185  34.086 139.097  0.00  0.00    +0.211 HD
ENDBRANCH  36  37
ENDBRANCH   5  36
ENDBRANCH   3   5
BRANCH   1  39
ATOM     39  CA  ILE A   4    -125.766  34.912 136.322  0.00  0.00    +0.149 C 
BRANCH  39  41
ATOM     40  C   SER A   3    -126.625  33.613 134.452  0.00  0.00    +0.243 C 
ATOM     41  N   ILE A   4    -126.750  34.657 135.268  0.00  0.00    -0.297 N 
ATOM     42  H   ILE A   4    -127.559  35.301 135.155  0.00  0.00    +0.150 HD
ATOM     43  O   SER A   3    -125.679  32.816 134.534  0.00  0.00    -0.273 OA
BRANCH  40  44
ATOM     44  CA  SER A   3    -127.712  33.438 133.386  0.00  0.00    +0.178 C 
BRANCH  44  47
ATOM     45  C   LYS A   2    -129.395  32.766 135.005  0.00  0.00    +0.241 C 
ATOM     46  O   LYS A   2    -128.621  31.960 135.525  0.00  0.00    -0.273 OA
ATOM     47  N   SER A   3    -129.052  33.522 133.956  0.00  0.00    -0.295 N 
ATOM     48  H   SER A   3    -129.747  34.176 133.543  0.00  0.00    +0.150 HD
BRANCH  45  49
ATOM     49  CA  LYS A   2    -130.817  32.918 135.548  0.00  0.00    +0.149 C 
BRANCH  49  52
ATOM     50  C   ASP A   1    -130.561  35.061 136.702  0.00  0.00    +0.239 C 
ATOM     51  O   ASP A   1    -129.632  34.656 137.411  0.00  0.00    -0.274 OA
ATOM     52  N   LYS A   2    -131.158  34.318 135.780  0.00  0.00    -0.297 N 
ATOM     53  H   LYS A   2    -131.902  34.752 135.197  0.00  0.00    +0.150 HD
BRANCH  50  54
ATOM     54  CA  ASP A   1    -131.074  36.505 136.816  0.00  0.00    +0.156 C 
BRANCH  54  55
ATOM     55  N   ASP A   1    -131.453  36.819 138.189  0.00  0.00    -0.238 NA
ATOM     56  H   ASP A   1    -130.868  37.485 138.732  0.00  0.00    +0.142 HD
ENDBRANCH  54  55
BRANCH  54  57
ATOM     57  CB  ASP A   1    -129.982  37.440 136.329  0.00  0.00    +0.140 C 
BRANCH  57  58
ATOM     58  CG  ASP A   1    -129.651  37.219 134.856  0.00  0.00    +0.367 C 
ATOM     59  OD2 ASP A   1    -128.507  36.798 134.550  0.00  0.00    -0.246 OA
ATOM     60  OD1 ASP A   1    -130.551  37.465 134.023  0.00  0.00    -0.246 OA
ENDBRANCH  57  58
ENDBRANCH  54  57
ENDBRANCH  50  54
ENDBRANCH  49  52
BRANCH  49  61
ATOM     61  CB  LYS A   2    -131.831  32.278 134.572  0.00  0.00    +0.029 C 
BRANCH  61  62
ATOM     62  CG  LYS A   2    -131.643  30.758 134.374  0.00  0.00    +0.000 C 
BRANCH  62  63
ATOM     63  CD  LYS A   2    -132.893  30.063 133.784  0.00  0.00    -0.024 C 
BRANCH  63  64
ATOM     64  CE  LYS A   2    -133.226  30.532 132.357  0.00  0.00    -0.086 C 
BRANCH  64  65
ATOM     65  NZ  LYS A   2    -132.133  30.178 131.371  0.00  0.00    +0.380 N 
ATOM     66  HZ1 LYS A   2    -131.244  30.632 131.663  0.00  0.00    -0.089 HD
ATOM     67  HZ2 LYS A   2    -132.006  29.146 131.352  0.00  0.00    -0.089 HD
ATOM     68  HZ3 LYS A   2    -132.401  30.513 130.424  0.00  0.00    -0.089 HD
ENDBRANCH  64  65
ENDBRANCH  63  64
ENDBRANCH  62  63
ENDBRANCH  61  62
ENDBRANCH  49  61
ENDBRANCH  45  49
ENDBRANCH  44  47
BRANCH  44  69
ATOM     69  CB  SER A   3    -127.539  34.491 132.272  0.00  0.00    +0.166 C 
BRANCH  69  70
ATOM     70  OG  SER A   3    -128.346  34.146 131.150  0.00  0.00    -0.380 OA
ATOM     71  H   SER A   3    -128.071  33.259 130.807  0.00  0.00    +0.211 HD
ENDBRANCH  69  70
ENDBRANCH  44  69
ENDBRANCH  40  44
ENDBRANCH  39  41
BRANCH  39  72
ATOM     72  CB  ILE A   4    -125.908  36.346 136.890  0.00  0.00    +0.027 C 
ATOM     73  CG2 ILE A   4    -125.089  36.496 138.201  0.00  0.00    +0.002 C 
BRANCH  72  74
ATOM     74  CG1 ILE A   4    -125.405  37.341 135.852  0.00  0.00    +0.002 C 
ATOM     75  CD1 ILE A   4    -125.738  38.827 136.189  0.00  0.00    +0.000 C 
ENDBRANCH  72  74
ENDBRANCH  39  72
ENDBRANCH   1  39
TORSDOF 33
REMARK  Name = ../refined-set-2016/2pqb/2pqb_pocket.pdb
REMARK  250 active torsions:
REMARK  status: ('A' for Active; 'I' for Inactive)
REMARK    1  A    between atoms: _1  and  _3
REMARK    2  A    between atoms: _3  and  _4
REMARK    3  A    between atoms: _3  and  _6
REMARK    4  A    between atoms: _6  and  _7
REMARK    5  A    between atoms: _10  and  _12
REMARK    6  A    between atoms: _12  and  _13
REMARK    7  A    between atoms: _12  and  _15
REMARK    8  A    between atoms: _15  and  _16
REMARK    9  A    between atoms: _16  and  _17
REMARK   10  A    between atoms: _17  and  _18
REMARK   11  A    between atoms: _18  and  _19
REMARK   12  A    between atoms: _23  and  _25
REMARK   13  A    between atoms: _25  and  _26
REMARK   14  A    between atoms: _25  and  _28
REMARK   15  A    between atoms: _28  and  _29
REMARK   16  A    between atoms: _31  and  _33
REMARK   17  A    between atoms: _33  and  _34
REMARK   18  A    between atoms: _33  and  _36
REMARK   19  A    between atoms: _36  and  _37
REMARK   20  A    between atoms: _40  and  _42
REMARK   21  A    between atoms: _42  and  _43
REMARK   22  A    between atoms: _42  and  _45
REMARK   23  A    between atoms: _45  and  _46
REMARK   24  A    between atoms: _48  and  _50
REMARK   25  A    between atoms: _50  and  _51
REMARK   26  A    between atoms: _50  and  _53
REMARK   27  A    between atoms: _53  and  _54
REMARK   28  A    between atoms: _59  and  _61
REMARK   29  A    between atoms: _61  and  _62
REMARK   30  A    between atoms: _61  and  _64
REMARK   31  A    between atoms: _64  and  _65
REMARK   32  A    between atoms: _65  and  _66
REMARK   33  A    between atoms: _66  and  _67
REMARK   34  A    between atoms: _76  and  _78
REMARK   35  A    between atoms: _78  and  _79
REMARK   36  A    between atoms: _78  and  _81
REMARK   37  A    between atoms: _81  and  _82
REMARK   38  A    between atoms: _85  and  _87
REMARK   39  A    between atoms: _87  and  _88
REMARK   40  A    between atoms: _87  and  _90
REMARK   41  A    between atoms: _90  and  _91
REMARK   42  A    between atoms: _94  and  _96
REMARK   43  A    between atoms: _96  and  _97
REMARK   44  A    between atoms: _96  and  _99
REMARK   45  A    between atoms: _99  and  _100
REMARK   46  A    between atoms: _106  and  _108
REMARK   47  A    between atoms: _108  and  _109
REMARK   48  A    between atoms: _108  and  _111
REMARK   49  A    between atoms: _111  and  _112
REMARK   50  A    between atoms: _117  and  _119
REMARK   51  A    between atoms: _119  and  _120
REMARK   52  A    between atoms: _123  and  _125
REMARK   53  A    between atoms: _125  and  _126
REMARK   54  A    between atoms: _129  and  _131
REMARK   55  A    between atoms: _131  and  _132
REMARK   56  A    between atoms: _131  and  _134
REMARK   57  A    between atoms: _134  and  _135
REMARK   58  A    between atoms: _138  and  _140
REMARK   59  A    between atoms: _140  and  _141
REMARK   60  A    between atoms: _143  and  _145
REMARK   61  A    between atoms: _145  and  _146
REMARK   62  A    between atoms: _145  and  _148
REMARK   63  A    between atoms: _150  and  _152
REMARK   64  A    between atoms: _152  and  _153
REMARK   65  A    between atoms: _152  and  _155
REMARK   66  A    between atoms: _155  and  _156
REMARK   67  A    between atoms: _156  and  _157
REMARK   68  A    between atoms: _157  and  _158
REMARK   69  A    between atoms: _167  and  _169
REMARK   70  A    between atoms: _169  and  _170
REMARK   71  A    between atoms: _169  and  _172
REMARK   72  A    between atoms: _172  and  _173
REMARK   73  A    between atoms: _176  and  _178
REMARK   74  A    between atoms: _178  and  _179
REMARK   75  A    between atoms: _178  and  _181
REMARK   76  A    between atoms: _181  and  _182
REMARK   77  A    between atoms: _184  and  _186
REMARK   78  A    between atoms: _186  and  _187
REMARK   79  A    between atoms: _186  and  _189
REMARK   80  A    between atoms: _189  and  _190
REMARK   81  A    between atoms: _193  and  _195
REMARK   82  A    between atoms: _195  and  _196
REMARK   83  A    between atoms: _195  and  _198
REMARK   84  A    between atoms: _198  and  _199
REMARK   85  A    between atoms: _199  and  _200
REMARK   86  A    between atoms: _200  and  _201
REMARK   87  A    between atoms: _211  and  _212
REMARK   88  A    between atoms: _217  and  _219
REMARK   89  A    between atoms: _219  and  _220
REMARK   90  A    between atoms: _219  and  _222
REMARK   91  A    between atoms: _222  and  _223
REMARK   92  A    between atoms: _223  and  _224
REMARK   93  A    between atoms: _224  and  _225
REMARK   94  A    between atoms: _234  and  _236
REMARK   95  A    between atoms: _236  and  _237
REMARK   96  A    between atoms: _236  and  _239
REMARK   97  A    between atoms: _242  and  _244
REMARK   98  A    between atoms: _244  and  _245
REMARK   99  A    between atoms: _244  and  _247
REMARK  100  A    between atoms: _250  and  _252
REMARK  101  A    between atoms: _252  and  _253
REMARK  102  A    between atoms: _252  and  _255
REMARK  103  A    between atoms: _255  and  _256
REMARK  104  A    between atoms: _256  and  _257
REMARK  105  A    between atoms: _259  and  _261
REMARK  106  A    between atoms: _261  and  _262
REMARK  107  A    between atoms: _265  and  _267
REMARK  108  A    between atoms: _267  and  _268
REMARK  109  A    between atoms: _267  and  _270
REMARK  110  A    between atoms: _270  and  _271
REMARK  111  A    between atoms: _273  and  _275
REMARK  112  A    between atoms: _275  and  _276
REMARK  113  A    between atoms: _279  and  _281
REMARK  114  A    between atoms: _281  and  _282
REMARK  115  A    between atoms: _281  and  _284
REMARK  116  A    between atoms: _284  and  _285
REMARK  117  A    between atoms: _285  and  _286
REMARK  118  A    between atoms: _291  and  _293
REMARK  119  A    between atoms: _293  and  _294
REMARK  120  A    between atoms: _293  and  _296
REMARK  121  A    between atoms: _299  and  _301
REMARK  122  A    between atoms: _301  and  _302
REMARK  123  A    between atoms: _301  and  _304
REMARK  124  A    between atoms: _304  and  _305
REMARK  125  A    between atoms: _305  and  _306
REMARK  126  A    between atoms: _306  and  _307
REMARK  127  A    between atoms: _307  and  _308
REMARK  128  A    between atoms: _312  and  _314
REMARK  129  A    between atoms: _314  and  _315
REMARK  130  A    between atoms: _314  and  _317
REMARK  131  A    between atoms: _317  and  _318
REMARK  132  A    between atoms: _320  and  _322
REMARK  133  A    between atoms: _322  and  _323
REMARK  134  A    between atoms: _326  and  _328
REMARK  135  A    between atoms: _328  and  _329
REMARK  136  A    between atoms: _328  and  _331
REMARK  137  A    between atoms: _331  and  _332
REMARK  138  A    between atoms: _335  and  _337
REMARK  139  A    between atoms: _337  and  _338
REMARK  140  A    between atoms: _337  and  _340
REMARK  141  A    between atoms: _340  and  _341
REMARK  142  A    between atoms: _341  and  _342
REMARK  143  A    between atoms: _342  and  _343
REMARK  144  A    between atoms: _352  and  _354
REMARK  145  A    between atoms: _354  and  _355
REMARK  146  A    between atoms: _354  and  _357
REMARK  147  A    between atoms: _357  and  _358
REMARK  148  A    between atoms: _361  and  _363
REMARK  149  A    between atoms: _363  and  _364
REMARK  150  A    between atoms: _363  and  _366
REMARK  151  A    between atoms: _366  and  _367
REMARK  152  A    between atoms: _372  and  _374
REMARK  153  A    between atoms: _374  and  _375
REMARK  154  A    between atoms: _374  and  _377
REMARK  155  A    between atoms: _377  and  _378
REMARK  156  A    between atoms: _381  and  _383
REMARK  157  A    between atoms: _383  and  _384
REMARK  158  A    between atoms: _383  and  _386
REMARK  159  A    between atoms: _386  and  _387
REMARK  160  A    between atoms: _390  and  _392
REMARK  161  A    between atoms: _392  and  _393
REMARK  162  A    between atoms: _392  and  _395
REMARK  163  A    between atoms: _395  and  _396
REMARK  164  A    between atoms: _398  and  _400
REMARK  165  A    between atoms: _400  and  _401
REMARK  166  A    between atoms: _400  and  _403
REMARK  167  A    between atoms: _403  and  _404
REMARK  168  A    between atoms: _404  and  _405
REMARK  169  A    between atoms: _405  and  _406
REMARK  170  A    between atoms: _415  and  _417
REMARK  171  A    between atoms: _417  and  _418
REMARK  172  A    between atoms: _422  and  _423
REMARK  173  A    between atoms: _428  and  _430
REMARK  174  A    between atoms: _430  and  _431
REMARK  175  A    between atoms: _430  and  _433
REMARK  176  A    between atoms: _433  and  _434
REMARK  177  A    between atoms: _434  and  _435
REMARK  178  A    between atoms: _437  and  _439
REMARK  179  A    between atoms: _439  and  _440
REMARK  180  A    between atoms: _439  and  _442
REMARK  181  A    between atoms: _442  and  _443
REMARK  182  A    between atoms: _446  and  _448
REMARK  183  A    between atoms: _448  and  _449
REMARK  184  A    between atoms: _448  and  _451
REMARK  185  A    between atoms: _451  and  _452
REMARK  186  A    between atoms: _455  and  _457
REMARK  187  A    between atoms: _457  and  _458
REMARK  188  A    between atoms: _457  and  _460
REMARK  189  A    between atoms: _460  and  _461
REMARK  190  A    between atoms: _461  and  _462
REMARK  191  A    between atoms: _465  and  _467
REMARK  192  A    between atoms: _467  and  _468
REMARK  193  A    between atoms: _467  and  _470
REMARK  194  A    between atoms: _470  and  _471
REMARK  195  A    between atoms: _471  and  _472
REMARK  196  A    between atoms: _475  and  _477
REMARK  197  A    between atoms: _477  and  _478
REMARK  198  A    between atoms: _477  and  _480
REMARK  199  A    between atoms: _480  and  _481
REMARK  200  A    between atoms: _484  and  _486
REMARK  201  A    between atoms: _486  and  _487
REMARK  202  A    between atoms: _486  and  _489
REMARK  203  A    between atoms: _492  and  _494
REMARK  204  A    between atoms: _494  and  _495
REMARK  205  A    between atoms: _494  and  _497
REMARK  206  A    between atoms: _497  and  _498
REMARK  207  A    between atoms: _498  and  _499
REMARK  208  A    between atoms: _499  and  _500
REMARK  209  A    between atoms: _500  and  _501
REMARK  210  A    between atoms: _505  and  _507
REMARK  211  A    between atoms: _507  and  _508
REMARK  212  A    between atoms: _507  and  _510
REMARK  213  A    between atoms: _510  and  _511
REMARK  214  A    between atoms: _511  and  _512
REMARK  215  A    between atoms: _515  and  _517
REMARK  216  A    between atoms: _517  and  _518
REMARK  217  A    between atoms: _517  and  _520
REMARK  218  A    between atoms: _520  and  _521
REMARK  219  A    between atoms: _523  and  _525
REMARK  220  A    between atoms: _525  and  _526
REMARK  221  A    between atoms: _525  and  _528
REMARK  222  A    between atoms: _528  and  _529
REMARK  223  A    between atoms: _529  and  _530
REMARK  224  A    between atoms: _530  and  _531
REMARK  225  A    between atoms: _540  and  _542
REMARK  226  A    between atoms: _542  and  _543
REMARK  227  A    between atoms: _542  and  _545
REMARK  228  A    between atoms: _545  and  _546
REMARK  229  A    between atoms: _549  and  _551
REMARK  230  A    between atoms: _551  and  _552
REMARK  231  A    between atoms: _551  and  _554
REMARK  232  A    between atoms: _554  and  _555
REMARK  233  A    between atoms: _560  and  _562
REMARK  234  A    between atoms: _562  and  _563
REMARK  235  A    between atoms: _562  and  _565
REMARK  236  A    between atoms: _565  and  _566
REMARK  237  A    between atoms: _566  and  _567
REMARK  238  A    between atoms: _567  and  _568
REMARK  239  A    between atoms: _577  and  _579
REMARK  240  A    between atoms: _579  and  _580
REMARK  241  A    between atoms: _579  and  _582
REMARK  242  A    between atoms: _582  and  _583
REMARK  243  A    between atoms: _586  and  _588
REMARK  244  A    between atoms: _588  and  _589
REMARK  245  A    between atoms: _588  and  _591
REMARK  246  A    between atoms: _591  and  _592
REMARK  247  A    between atoms: _595  and  _597
REMARK  248  A    between atoms: _597  and  _598
REMARK  249  A    between atoms: _597  and  _600
REMARK  250  A    between atoms: _600  and  _601
REMARK                            x       y       z     vdW  Elec       q    Type
REMARK                         _______ _______ _______ _____ _____    ______ ____
ROOT
ATOM      1  CA  ASP A   1    -132.664  24.947 135.915  0.00  0.00    +0.144 C 
ENDROOT
BRANCH   1   2
ATOM      2  N   ASP A   1    -133.865  24.945 136.748  0.00  0.00    -0.239 NA
ATOM      3  H   ASP A   1    -134.639  25.608 136.541  0.00  0.00    +0.142 HD
ENDBRANCH   1   2
BRANCH   1   4
ATOM      4  C   ASP A   1    -131.398  25.188 136.748  0.00  0.00    +0.225 C 
ATOM      5  O   ASP A   1    -130.402  24.486 136.585  0.00  0.00    -0.287 OA
ENDBRANCH   1   4
BRANCH   1   6
ATOM      6  CB  ASP A   1    -132.727  26.040 134.827  0.00  0.00    +0.139 C 
BRANCH   6   7
ATOM      7  CG  ASP A   1    -133.666  25.703 133.676  0.00  0.00    +0.367 C 
ATOM      8  OD2 ASP A   1    -134.326  24.627 133.685  0.00  0.00    -0.246 OA
ATOM      9  OD1 ASP A   1    -133.741  26.542 132.741  0.00  0.00    -0.246 OA
ENDBRANCH   6   7
ENDBRANCH   1   6
TORSDOF 4
REMARK  Name = ../refined-set-2016/2pqb/2pqb_pocket.pdb
REMARK  250 active torsions:
REMARK  status: ('A' for Active; 'I' for Inactive)
REMARK    1  A    between atoms: _1  and  _3
REMARK    2  A    between atoms: _3  and  _4
REMARK    3  A    between atoms: _3  and  _6
REMARK    4  A    between atoms: _6  and  _7
REMARK    5  A    between atoms: _10  and  _12
REMARK    6  A    between atoms: _12  and  _13
REMARK    7  A    between atoms: _12  and  _15
REMARK    8  A    between atoms: _15  and  _16
REMARK    9  A    between atoms: _16  and  _17
REMARK   10  A    between atoms: _17  and  _18
REMARK   11  A    between atoms: _18  and  _19
REMARK   12  A    between atoms: _23  and  _25
REMARK   13  A    between atoms: _25  and  _26
REMARK   14  A    between atoms: _25  and  _28
REMARK   15  A    between atoms: _28  and  _29
REMARK   16  A    between atoms: _31  and  _33
REMARK   17  A    between atoms: _33  and  _34
REMARK   18  A    between atoms: _33  and  _36
REMARK   19  A    between atoms: _36  and  _37
REMARK   20  A    between atoms: _40  and  _42
REMARK   21  A    between atoms: _42  and  _43
REMARK   22  A    between atoms: _42  and  _45
REMARK   23  A    between atoms: _45  and  _46
REMARK   24  A    between atoms: _48  and  _50
REMARK   25  A    between atoms: _50  and  _51
REMARK   26  A    between atoms: _50  and  _53
REMARK   27  A    between atoms: _53  and  _54
REMARK   28  A    between atoms: _59  and  _61
REMARK   29  A    between atoms: _61  and  _62
REMARK   30  A    between atoms: _61  and  _64
REMARK   31  A    between atoms: _64  and  _65
REMARK   32  A    between atoms: _65  and  _66
REMARK   33  A    between atoms: _66  and  _67
REMARK   34  A    between atoms: _76  and  _78
REMARK   35  A    between atoms: _78  and  _79
REMARK   36  A    between atoms: _78  and  _81
REMARK   37  A    between atoms: _81  and  _82
REMARK   38  A    between atoms: _85  and  _87
REMARK   39  A    between atoms: _87  and  _88
REMARK   40  A    between atoms: _87  and  _90
REMARK   41  A    between atoms: _90  and  _91
REMARK   42  A    between atoms: _94  and  _96
REMARK   43  A    between atoms: _96  and  _97
REMARK   44  A    between atoms: _96  and  _99
REMARK   45  A    between atoms: _99  and  _100
REMARK   46  A    between atoms: _106  and  _108
REMARK   47  A    between atoms: _108  and  _109
REMARK   48  A    between atoms: _108  and  _111
REMARK   49  A    between atoms: _111  and  _112
REMARK   50  A    between atoms: _117  and  _119
REMARK   51  A    between atoms: _119  and  _120
REMARK   52  A    between atoms: _123  and  _125
REMARK   53  A    between atoms: _125  and  _126
REMARK   54  A    between atoms: _129  and  _131
REMARK   55  A    between atoms: _131  and  _132
REMARK   56  A    between atoms: _131  and  _134
REMARK   57  A    between atoms: _134  and  _135
REMARK   58  A    between atoms: _138  and  _140
REMARK   59  A    between atoms: _140  and  _141
REMARK   60  A    between atoms: _143  and  _145
REMARK   61  A    between atoms: _145  and  _146
REMARK   62  A    between atoms: _145  and  _148
REMARK   63  A    between atoms: _150  and  _152
REMARK   64  A    between atoms: _152  and  _153
REMARK   65  A    between atoms: _152  and  _155
REMARK   66  A    between atoms: _155  and  _156
REMARK   67  A    between atoms: _156  and  _157
REMARK   68  A    between atoms: _157  and  _158
REMARK   69  A    between atoms: _167  and  _169
REMARK   70  A    between atoms: _169  and  _170
REMARK   71  A    between atoms: _169  and  _172
REMARK   72  A    between atoms: _172  and  _173
REMARK   73  A    between atoms: _176  and  _178
REMARK   74  A    between atoms: _178  and  _179
REMARK   75  A    between atoms: _178  and  _181
REMARK   76  A    between atoms: _181  and  _182
REMARK   77  A    between atoms: _184  and  _186
REMARK   78  A    between atoms: _186  and  _187
REMARK   79  A    between atoms: _186  and  _189
REMARK   80  A    between atoms: _189  and  _190
REMARK   81  A    between atoms: _193  and  _195
REMARK   82  A    between atoms: _195  and  _196
REMARK   83  A    between atoms: _195  and  _198
REMARK   84  A    between atoms: _198  and  _199
REMARK   85  A    between atoms: _199  and  _200
REMARK   86  A    between atoms: _200  and  _201
REMARK   87  A    between atoms: _211  and  _212
REMARK   88  A    between atoms: _217  and  _219
REMARK   89  A    between atoms: _219  and  _220
REMARK   90  A    between atoms: _219  and  _222
REMARK   91  A    between atoms: _222  and  _223
REMARK   92  A    between atoms: _223  and  _224
REMARK   93  A    between atoms: _224  and  _225
REMARK   94  A    between atoms: _234  and  _236
REMARK   95  A    between atoms: _236  and  _237
REMARK   96  A    between atoms: _236  and  _239
REMARK   97  A    between atoms: _242  and  _244
REMARK   98  A    between atoms: _244  and  _245
REMARK   99  A    between atoms: _244  and  _247
REMARK  100  A    between atoms: _250  and  _252
REMARK  101  A    between atoms: _252  and  _253
REMARK  102  A    between atoms: _252  and  _255
REMARK  103  A    between atoms: _255  and  _256
REMARK  104  A    between atoms: _256  and  _257
REMARK  105  A    between atoms: _259  and  _261
REMARK  106  A    between atoms: _261  and  _262
REMARK  107  A    between atoms: _265  and  _267
REMARK  108  A    between atoms: _267  and  _268
REMARK  109  A    between atoms: _267  and  _270
REMARK  110  A    between atoms: _270  and  _271
REMARK  111  A    between atoms: _273  and  _275
REMARK  112  A    between atoms: _275  and  _276
REMARK  113  A    between atoms: _279  and  _281
REMARK  114  A    between atoms: _281  and  _282
REMARK  115  A    between atoms: _281  and  _284
REMARK  116  A    between atoms: _284  and  _285
REMARK  117  A    between atoms: _285  and  _286
REMARK  118  A    between atoms: _291  and  _293
REMARK  119  A    between atoms: _293  and  _294
REMARK  120  A    between atoms: _293  and  _296
REMARK  121  A    between atoms: _299  and  _301
REMARK  122  A    between atoms: _301  and  _302
REMARK  123  A    between atoms: _301  and  _304
REMARK  124  A    between atoms: _304  and  _305
REMARK  125  A    between atoms: _305  and  _306
REMARK  126  A    between atoms: _306  and  _307
REMARK  127  A    between atoms: _307  and  _308
REMARK  128  A    between atoms: _312  and  _314
REMARK  129  A    between atoms: _314  and  _315
REMARK  130  A    between atoms: _314  and  _317
REMARK  131  A    between atoms: _317  and  _318
REMARK  132  A    between atoms: _320  and  _322
REMARK  133  A    between atoms: _322  and  _323
REMARK  134  A    between atoms: _326  and  _328
REMARK  135  A    between atoms: _328  and  _329
REMARK  136  A    between atoms: _328  and  _331
REMARK  137  A    between atoms: _331  and  _332
REMARK  138  A    between atoms: _335  and  _337
REMARK  139  A    between atoms: _337  and  _338
REMARK  140  A    between atoms: _337  and  _340
REMARK  141  A    between atoms: _340  and  _341
REMARK  142  A    between atoms: _341  and  _342
REMARK  143  A    between atoms: _342  and  _343
REMARK  144  A    between atoms: _352  and  _354
REMARK  145  A    between atoms: _354  and  _355
REMARK  146  A    between atoms: _354  and  _357
REMARK  147  A    between atoms: _357  and  _358
REMARK  148  A    between atoms: _361  and  _363
REMARK  149  A    between atoms: _363  and  _364
REMARK  150  A    between atoms: _363  and  _366
REMARK  151  A    between atoms: _366  and  _367
REMARK  152  A    between atoms: _372  and  _374
REMARK  153  A    between atoms: _374  and  _375
REMARK  154  A    between atoms: _374  and  _377
REMARK  155  A    between atoms: _377  and  _378
REMARK  156  A    between atoms: _381  and  _383
REMARK  157  A    between atoms: _383  and  _384
REMARK  158  A    between atoms: _383  and  _386
REMARK  159  A    between atoms: _386  and  _387
REMARK  160  A    between atoms: _390  and  _392
REMARK  161  A    between atoms: _392  and  _393
REMARK  162  A    between atoms: _392  and  _395
REMARK  163  A    between atoms: _395  and  _396
REMARK  164  A    between atoms: _398  and  _400
REMARK  165  A    between atoms: _400  and  _401
REMARK  166  A    between atoms: _400  and  _403
REMARK  167  A    between atoms: _403  and  _404
REMARK  168  A    between atoms: _404  and  _405
REMARK  169  A    between atoms: _405  and  _406
REMARK  170  A    between atoms: _415  and  _417
REMARK  171  A    between atoms: _417  and  _418
REMARK  172  A    between atoms: _422  and  _423
REMARK  173  A    between atoms: _428  and  _430
REMARK  174  A    between atoms: _430  and  _431
REMARK  175  A    between atoms: _430  and  _433
REMARK  176  A    between atoms: _433  and  _434
REMARK  177  A    between atoms: _434  and  _435
REMARK  178  A    between atoms: _437  and  _439
REMARK  179  A    between atoms: _439  and  _440
REMARK  180  A    between atoms: _439  and  _442
REMARK  181  A    between atoms: _442  and  _443
REMARK  182  A    between atoms: _446  and  _448
REMARK  183  A    between atoms: _448  and  _449
REMARK  184  A    between atoms: _448  and  _451
REMARK  185  A    between atoms: _451  and  _452
REMARK  186  A    between atoms: _455  and  _457
REMARK  187  A    between atoms: _457  and  _458
REMARK  188  A    between atoms: _457  and  _460
REMARK  189  A    between atoms: _460  and  _461
REMARK  190  A    between atoms: _461  and  _462
REMARK  191  A    between atoms: _465  and  _467
REMARK  192  A    between atoms: _467  and  _468
REMARK  193  A    between atoms: _467  and  _470
REMARK  194  A    between atoms: _470  and  _471
REMARK  195  A    between atoms: _471  and  _472
REMARK  196  A    between atoms: _475  and  _477
REMARK  197  A    between atoms: _477  and  _478
REMARK  198  A    between atoms: _477  and  _480
REMARK  199  A    between atoms: _480  and  _481
REMARK  200  A    between atoms: _484  and  _486
REMARK  201  A    between atoms: _486  and  _487
REMARK  202  A    between atoms: _486  and  _489
REMARK  203  A    between atoms: _492  and  _494
REMARK  204  A    between atoms: _494  and  _495
REMARK  205  A    between atoms: _494  and  _497
REMARK  206  A    between atoms: _497  and  _498
REMARK  207  A    between atoms: _498  and  _499
REMARK  208  A    between atoms: _499  and  _500
REMARK  209  A    between atoms: _500  and  _501
REMARK  210  A    between atoms: _505  and  _507
REMARK  211  A    between atoms: _507  and  _508
REMARK  212  A    between atoms: _507  and  _510
REMARK  213  A    between atoms: _510  and  _511
REMARK  214  A    between atoms: _511  and  _512
REMARK  215  A    between atoms: _515  and  _517
REMARK  216  A    between atoms: _517  and  _518
REMARK  217  A    between atoms: _517  and  _520
REMARK  218  A    between atoms: _520  and  _521
REMARK  219  A    between atoms: _523  and  _525
REMARK  220  A    between atoms: _525  and  _526
REMARK  221  A    between atoms: _525  and  _528
REMARK  222  A    between atoms: _528  and  _529
REMARK  223  A    between atoms: _529  and  _530
REMARK  224  A    between atoms: _530  and  _531
REMARK  225  A    between atoms: _540  and  _542
REMARK  226  A    between atoms: _542  and  _543
REMARK  227  A    between atoms: _542  and  _545
REMARK  228  A    between atoms: _545  and  _546
REMARK  229  A    between atoms: _549  and  _551
REMARK  230  A    between atoms: _551  and  _552
REMARK  231  A    between atoms: _551  and  _554
REMARK  232  A    between atoms: _554  and  _555
REMARK  233  A    between atoms: _560  and  _562
REMARK  234  A    between atoms: _562  and  _563
REMARK  235  A    between atoms: _562  and  _565
REMARK  236  A    between atoms: _565  and  _566
REMARK  237  A    between atoms: _566  and  _567
REMARK  238  A    between atoms: _567  and  _568
REMARK  239  A    between atoms: _577  and  _579
REMARK  240  A    between atoms: _579  and  _580
REMARK  241  A    between atoms: _579  and  _582
REMARK  242  A    between atoms: _582  and  _583
REMARK  243  A    between atoms: _586  and  _588
REMARK  244  A    between atoms: _588  and  _589
REMARK  245  A    between atoms: _588  and  _591
REMARK  246  A    between atoms: _591  and  _592
REMARK  247  A    between atoms: _595  and  _597
REMARK  248  A    between atoms: _597  and  _598
REMARK  249  A    between atoms: _597  and  _600
REMARK  250  A    between atoms: _600  and  _601
REMARK                            x       y       z     vdW  Elec       q    Type
REMARK                         _______ _______ _______ _____ _____    ______ ____
ROOT
ATOM      1  CA  THR A   1    -126.479  23.113 137.841  0.00  0.00    +0.160 C 
ENDROOT
BRANCH   1   2
ATOM      2  N   THR A   1    -127.897  22.775 137.951  0.00  0.00    -0.237 NA
ATOM      3  H   THR A   1    -128.623  23.502 137.792  0.00  0.00    +0.142 HD
ENDBRANCH   1   2
BRANCH   1   4
ATOM      4  C   THR A   1    -125.792  22.926 139.205  0.00  0.00    +0.227 C 
ATOM      5  O   THR A   1    -124.639  22.458 139.296  0.00  0.00    -0.287 OA
ENDBRANCH   1   4
BRANCH   1   6
ATOM      6  CB  THR A   1    -126.299  24.568 137.369  0.00  0.00    +0.134 C 
ATOM      7  CG2 THR A   1    -124.839  24.974 137.441  0.00  0.00    +0.034 C 
BRANCH   6   8
ATOM      8  OG1 THR A   1    -126.718  24.665 136.002  0.00  0.00    -0.383 OA
ATOM      9  HG1 THR A   1    -127.670  24.404 135.931  0.00  0.00    +0.210 HD
ENDBRANCH   6   8
ENDBRANCH   1   6
TORSDOF 4
REMARK  Name = ../refined-set-2016/2pqb/2pqb_pocket.pdb
REMARK  250 active torsions:
REMARK  status: ('A' for Active; 'I' for Inactive)
REMARK    1  A    between atoms: _1  and  _3
REMARK    2  A    between atoms: _3  and  _4
REMARK    3  A    between atoms: _3  and  _6
REMARK    4  A    between atoms: _6  and  _7
REMARK    5  A    between atoms: _10  and  _12
REMARK    6  A    between atoms: _12  and  _13
REMARK    7  A    between atoms: _12  and  _15
REMARK    8  A    between atoms: _15  and  _16
REMARK    9  A    between atoms: _16  and  _17
REMARK   10  A    between atoms: _17  and  _18
REMARK   11  A    between atoms: _18  and  _19
REMARK   12  A    between atoms: _23  and  _25
REMARK   13  A    between atoms: _25  and  _26
REMARK   14  A    between atoms: _25  and  _28
REMARK   15  A    between atoms: _28  and  _29
REMARK   16  A    between atoms: _31  and  _33
REMARK   17  A    between atoms: _33  and  _34
REMARK   18  A    between atoms: _33  and  _36
REMARK   19  A    between atoms: _36  and  _37
REMARK   20  A    between atoms: _40  and  _42
REMARK   21  A    between atoms: _42  and  _43
REMARK   22  A    between atoms: _42  and  _45
REMARK   23  A    between atoms: _45  and  _46
REMARK   24  A    between atoms: _48  and  _50
REMARK   25  A    between atoms: _50  and  _51
REMARK   26  A    between atoms: _50  and  _53
REMARK   27  A    between atoms: _53  and  _54
REMARK   28  A    between atoms: _59  and  _61
REMARK   29  A    between atoms: _61  and  _62
REMARK   30  A    between atoms: _61  and  _64
REMARK   31  A    between atoms: _64  and  _65
REMARK   32  A    between atoms: _65  and  _66
REMARK   33  A    between atoms: _66  and  _67
REMARK   34  A    between atoms: _76  and  _78
REMARK   35  A    between atoms: _78  and  _79
REMARK   36  A    between atoms: _78  and  _81
REMARK   37  A    between atoms: _81  and  _82
REMARK   38  A    between atoms: _85  and  _87
REMARK   39  A    between atoms: _87  and  _88
REMARK   40  A    between atoms: _87  and  _90
REMARK   41  A    between atoms: _90  and  _91
REMARK   42  A    between atoms: _94  and  _96
REMARK   43  A    between atoms: _96  and  _97
REMARK   44  A    between atoms: _96  and  _99
REMARK   45  A    between atoms: _99  and  _100
REMARK   46  A    between atoms: _106  and  _108
REMARK   47  A    between atoms: _108  and  _109
REMARK   48  A    between atoms: _108  and  _111
REMARK   49  A    between atoms: _111  and  _112
REMARK   50  A    between atoms: _117  and  _119
REMARK   51  A    between atoms: _119  and  _120
REMARK   52  A    between atoms: _123  and  _125
REMARK   53  A    between atoms: _125  and  _126
REMARK   54  A    between atoms: _129  and  _131
REMARK   55  A    between atoms: _131  and  _132
REMARK   56  A    between atoms: _131  and  _134
REMARK   57  A    between atoms: _134  and  _135
REMARK   58  A    between atoms: _138  and  _140
REMARK   59  A    between atoms: _140  and  _141
REMARK   60  A    between atoms: _143  and  _145
REMARK   61  A    between atoms: _145  and  _146
REMARK   62  A    between atoms: _145  and  _148
REMARK   63  A    between atoms: _150  and  _152
REMARK   64  A    between atoms: _152  and  _153
REMARK   65  A    between atoms: _152  and  _155
REMARK   66  A    between atoms: _155  and  _156
REMARK   67  A    between atoms: _156  and  _157
REMARK   68  A    between atoms: _157  and  _158
REMARK   69  A    between atoms: _167  and  _169
REMARK   70  A    between atoms: _169  and  _170
REMARK   71  A    between atoms: _169  and  _172
REMARK   72  A    between atoms: _172  and  _173
REMARK   73  A    between atoms: _176  and  _178
REMARK   74  A    between atoms: _178  and  _179
REMARK   75  A    between atoms: _178  and  _181
REMARK   76  A    between atoms: _181  and  _182
REMARK   77  A    between atoms: _184  and  _186
REMARK   78  A    between atoms: _186  and  _187
REMARK   79  A    between atoms: _186  and  _189
REMARK   80  A    between atoms: _189  and  _190
REMARK   81  A    between atoms: _193  and  _195
REMARK   82  A    between atoms: _195  and  _196
REMARK   83  A    between atoms: _195  and  _198
REMARK   84  A    between atoms: _198  and  _199
REMARK   85  A    between atoms: _199  and  _200
REMARK   86  A    between atoms: _200  and  _201
REMARK   87  A    between atoms: _211  and  _212
REMARK   88  A    between atoms: _217  and  _219
REMARK   89  A    between atoms: _219  and  _220
REMARK   90  A    between atoms: _219  and  _222
REMARK   91  A    between atoms: _222  and  _223
REMARK   92  A    between atoms: _223  and  _224
REMARK   93  A    between atoms: _224  and  _225
REMARK   94  A    between atoms: _234  and  _236
REMARK   95  A    between atoms: _236  and  _237
REMARK   96  A    between atoms: _236  and  _239
REMARK   97  A    between atoms: _242  and  _244
REMARK   98  A    between atoms: _244  and  _245
REMARK   99  A    between atoms: _244  and  _247
REMARK  100  A    between atoms: _250  and  _252
REMARK  101  A    between atoms: _252  and  _253
REMARK  102  A    between atoms: _252  and  _255
REMARK  103  A    between atoms: _255  and  _256
REMARK  104  A    between atoms: _256  and  _257
REMARK  105  A    between atoms: _259  and  _261
REMARK  106  A    between atoms: _261  and  _262
REMARK  107  A    between atoms: _265  and  _267
REMARK  108  A    between atoms: _267  and  _268
REMARK  109  A    between atoms: _267  and  _270
REMARK  110  A    between atoms: _270  and  _271
REMARK  111  A    between atoms: _273  and  _275
REMARK  112  A    between atoms: _275  and  _276
REMARK  113  A    between atoms: _279  and  _281
REMARK  114  A    between atoms: _281  and  _282
REMARK  115  A    between atoms: _281  and  _284
REMARK  116  A    between atoms: _284  and  _285
REMARK  117  A    between atoms: _285  and  _286
REMARK  118  A    between atoms: _291  and  _293
REMARK  119  A    between atoms: _293  and  _294
REMARK  120  A    between atoms: _293  and  _296
REMARK  121  A    between atoms: _299  and  _301
REMARK  122  A    between atoms: _301  and  _302
REMARK  123  A    between atoms: _301  and  _304
REMARK  124  A    between atoms: _304  and  _305
REMARK  125  A    between atoms: _305  and  _306
REMARK  126  A    between atoms: _306  and  _307
REMARK  127  A    between atoms: _307  and  _308
REMARK  128  A    between atoms: _312  and  _314
REMARK  129  A    between atoms: _314  and  _315
REMARK  130  A    between atoms: _314  and  _317
REMARK  131  A    between atoms: _317  and  _318
REMARK  132  A    between atoms: _320  and  _322
REMARK  133  A    between atoms: _322  and  _323
REMARK  134  A    between atoms: _326  and  _328
REMARK  135  A    between atoms: _328  and  _329
REMARK  136  A    between atoms: _328  and  _331
REMARK  137  A    between atoms: _331  and  _332
REMARK  138  A    between atoms: _335  and  _337
REMARK  139  A    between atoms: _337  and  _338
REMARK  140  A    between atoms: _337  and  _340
REMARK  141  A    between atoms: _340  and  _341
REMARK  142  A    between atoms: _341  and  _342
REMARK  143  A    between atoms: _342  and  _343
REMARK  144  A    between atoms: _352  and  _354
REMARK  145  A    between atoms: _354  and  _355
REMARK  146  A    between atoms: _354  and  _357
REMARK  147  A    between atoms: _357  and  _358
REMARK  148  A    between atoms: _361  and  _363
REMARK  149  A    between atoms: _363  and  _364
REMARK  150  A    between atoms: _363  and  _366
REMARK  151  A    between atoms: _366  and  _367
REMARK  152  A    between atoms: _372  and  _374
REMARK  153  A    between atoms: _374  and  _375
REMARK  154  A    between atoms: _374  and  _377
REMARK  155  A    between atoms: _377  and  _378
REMARK  156  A    between atoms: _381  and  _383
REMARK  157  A    between atoms: _383  and  _384
REMARK  158  A    between atoms: _383  and  _386
REMARK  159  A    between atoms: _386  and  _387
REMARK  160  A    between atoms: _390  and  _392
REMARK  161  A    between atoms: _392  and  _393
REMARK  162  A    between atoms: _392  and  _395
REMARK  163  A    between atoms: _395  and  _396
REMARK  164  A    between atoms: _398  and  _400
REMARK  165  A    between atoms: _400  and  _401
REMARK  166  A    between atoms: _400  and  _403
REMARK  167  A    between atoms: _403  and  _404
REMARK  168  A    between atoms: _404  and  _405
REMARK  169  A    between atoms: _405  and  _406
REMARK  170  A    between atoms: _415  and  _417
REMARK  171  A    between atoms: _417  and  _418
REMARK  172  A    between atoms: _422  and  _423
REMARK  173  A    between atoms: _428  and  _430
REMARK  174  A    between atoms: _430  and  _431
REMARK  175  A    between atoms: _430  and  _433
REMARK  176  A    between atoms: _433  and  _434
REMARK  177  A    between atoms: _434  and  _435
REMARK  178  A    between atoms: _437  and  _439
REMARK  179  A    between atoms: _439  and  _440
REMARK  180  A    between atoms: _439  and  _442
REMARK  181  A    between atoms: _442  and  _443
REMARK  182  A    between atoms: _446  and  _448
REMARK  183  A    between atoms: _448  and  _449
REMARK  184  A    between atoms: _448  and  _451
REMARK  185  A    between atoms: _451  and  _452
REMARK  186  A    between atoms: _455  and  _457
REMARK  187  A    between atoms: _457  and  _458
REMARK  188  A    between atoms: _457  and  _460
REMARK  189  A    between atoms: _460  and  _461
REMARK  190  A    between atoms: _461  and  _462
REMARK  191  A    between atoms: _465  and  _467
REMARK  192  A    between atoms: _467  and  _468
REMARK  193  A    between atoms: _467  and  _470
REMARK  194  A    between atoms: _470  and  _471
REMARK  195  A    between atoms: _471  and  _472
REMARK  196  A    between atoms: _475  and  _477
REMARK  197  A    between atoms: _477  and  _478
REMARK  198  A    between atoms: _477  and  _480
REMARK  199  A    between atoms: _480  and  _481
REMARK  200  A    between atoms: _484  and  _486
REMARK  201  A    between atoms: _486  and  _487
REMARK  202  A    between atoms: _486  and  _489
REMARK  203  A    between atoms: _492  and  _494
REMARK  204  A    between atoms: _494  and  _495
REMARK  205  A    between atoms: _494  and  _497
REMARK  206  A    between atoms: _497  and  _498
REMARK  207  A    between atoms: _498  and  _499
REMARK  208  A    between atoms: _499  and  _500
REMARK  209  A    between atoms: _500  and  _501
REMARK  210  A    between atoms: _505  and  _507
REMARK  211  A    between atoms: _507  and  _508
REMARK  212  A    between atoms: _507  and  _510
REMARK  213  A    between atoms: _510  and  _511
REMARK  214  A    between atoms: _511  and  _512
REMARK  215  A    between atoms: _515  and  _517
REMARK  216  A    between atoms: _517  and  _518
REMARK  217  A    between atoms: _517  and  _520
REMARK  218  A    between atoms: _520  and  _521
REMARK  219  A    between atoms: _523  and  _525
REMARK  220  A    between atoms: _525  and  _526
REMARK  221  A    between atoms: _525  and  _528
REMARK  222  A    between atoms: _528  and  _529
REMARK  223  A    between atoms: _529  and  _530
REMARK  224  A    between atoms: _530  and  _531
REMARK  225  A    between atoms: _540  and  _542
REMARK  226  A    between atoms: _542  and  _543
REMARK  227  A    between atoms: _542  and  _545
REMARK  228  A    between atoms: _545  and  _546
REMARK  229  A    between atoms: _549  and  _551
REMARK  230  A    between atoms: _551  and  _552
REMARK  231  A    between atoms: _551  and  _554
REMARK  232  A    between atoms: _554  and  _555
REMARK  233  A    between atoms: _560  and  _562
REMARK  234  A    between atoms: _562  and  _563
REMARK  235  A    between atoms: _562  and  _565
REMARK  236  A    between atoms: _565  and  _566
REMARK  237  A    between atoms: _566  and  _567
REMARK  238  A    between atoms: _567  and  _568
REMARK  239  A    between atoms: _577  and  _579
REMARK  240  A    between atoms: _579  and  _580
REMARK  241  A    between atoms: _579  and  _582
REMARK  242  A    between atoms: _582  and  _583
REMARK  243  A    between atoms: _586  and  _588
REMARK  244  A    between atoms: _588  and  _589
REMARK  245  A    between atoms: _588  and  _591
REMARK  246  A    between atoms: _591  and  _592
REMARK  247  A    between atoms: _595  and  _597
REMARK  248  A    between atoms: _597  and  _598
REMARK  249  A    between atoms: _597  and  _600
REMARK  250  A    between atoms: _600  and  _601
REMARK                            x       y       z     vdW  Elec       q    Type
REMARK                         _______ _______ _______ _____ _____    ______ ____
ROOT
ATOM      1  CB  PHE A   1    -128.485  19.831 132.348  0.00  0.00    +0.051 C 
ENDROOT
BRANCH   1   2
ATOM      2  CG  PHE A   1    -127.052  19.923 132.822  0.00  0.00    -0.020 A 
ATOM      3  CD2 PHE A   1    -126.651  20.976 133.640  0.00  0.00    -0.004 A 
ATOM      4  CE2 PHE A   1    -125.356  21.029 134.157  0.00  0.00    -0.000 A 
ATOM      5  CZ  PHE A   1    -124.457  20.029 133.854  0.00  0.00    -0.000 A 
ATOM      6  CE1 PHE A   1    -124.839  18.979 133.040  0.00  0.00    -0.000 A 
ATOM      7  CD1 PHE A   1    -126.134  18.930 132.528  0.00  0.00    -0.004 A 
ENDBRANCH   1   2
BRANCH   1   8
ATOM      8  CA  PHE A   1    -129.414  19.182 133.388  0.00  0.00    +0.137 C 
BRANCH   8   9
ATOM      9  N   PHE A   1    -129.120  17.763 133.454  0.00  0.00    -0.239 NA
ATOM     10  H   PHE A   1    -128.988  17.222 132.576  0.00  0.00    +0.142 HD
ENDBRANCH   8   9
BRANCH   8  11
ATOM     11  C   PHE A   1    -130.890  19.522 133.149  0.00  0.00    +0.224 C 
ATOM     12  O   PHE A   1    -131.264  20.701 133.017  0.00  0.00    -0.287 OA
ENDBRANCH   8  11
ENDBRANCH   1   8
TORSDOF 4
REMARK  Name = ../refined-set-2016/2pqb/2pqb_pocket.pdb
REMARK  250 active torsions:
REMARK  status: ('A' for Active; 'I' for Inactive)
REMARK    1  A    between atoms: _1  and  _3
REMARK    2  A    between atoms: _3  and  _4
REMARK    3  A    between atoms: _3  and  _6
REMARK    4  A    between atoms: _6  and  _7
REMARK    5  A    between atoms: _10  and  _12
REMARK    6  A    between atoms: _12  and  _13
REMARK    7  A    between atoms: _12  and  _15
REMARK    8  A    between atoms: _15  and  _16
REMARK    9  A    between atoms: _16  and  _17
REMARK   10  A    between atoms: _17  and  _18
REMARK   11  A    between atoms: _18  and  _19
REMARK   12  A    between atoms: _23  and  _25
REMARK   13  A    between atoms: _25  and  _26
REMARK   14  A    between atoms: _25  and  _28
REMARK   15  A    between atoms: _28  and  _29
REMARK   16  A    between atoms: _31  and  _33
REMARK   17  A    between atoms: _33  and  _34
REMARK   18  A    between atoms: _33  and  _36
REMARK   19  A    between atoms: _36  and  _37
REMARK   20  A    between atoms: _40  and  _42
REMARK   21  A    between atoms: _42  and  _43
REMARK   22  A    between atoms: _42  and  _45
REMARK   23  A    between atoms: _45  and  _46
REMARK   24  A    between atoms: _48  and  _50
REMARK   25  A    between atoms: _50  and  _51
REMARK   26  A    between atoms: _50  and  _53
REMARK   27  A    between atoms: _53  and  _54
REMARK   28  A    between atoms: _59  and  _61
REMARK   29  A    between atoms: _61  and  _62
REMARK   30  A    between atoms: _61  and  _64
REMARK   31  A    between atoms: _64  and  _65
REMARK   32  A    between atoms: _65  and  _66
REMARK   33  A    between atoms: _66  and  _67
REMARK   34  A    between atoms: _76  and  _78
REMARK   35  A    between atoms: _78  and  _79
REMARK   36  A    between atoms: _78  and  _81
REMARK   37  A    between atoms: _81  and  _82
REMARK   38  A    between atoms: _85  and  _87
REMARK   39  A    between atoms: _87  and  _88
REMARK   40  A    between atoms: _87  and  _90
REMARK   41  A    between atoms: _90  and  _91
REMARK   42  A    between atoms: _94  and  _96
REMARK   43  A    between atoms: _96  and  _97
REMARK   44  A    between atoms: _96  and  _99
REMARK   45  A    between atoms: _99  and  _100
REMARK   46  A    between atoms: _106  and  _108
REMARK   47  A    between atoms: _108  and  _109
REMARK   48  A    between atoms: _108  and  _111
REMARK   49  A    between atoms: _111  and  _112
REMARK   50  A    between atoms: _117  and  _119
REMARK   51  A    between atoms: _119  and  _120
REMARK   52  A    between atoms: _123  and  _125
REMARK   53  A    between atoms: _125  and  _126
REMARK   54  A    between atoms: _129  and  _131
REMARK   55  A    between atoms: _131  and  _132
REMARK   56  A    between atoms: _131  and  _134
REMARK   57  A    between atoms: _134  and  _135
REMARK   58  A    between atoms: _138  and  _140
REMARK   59  A    between atoms: _140  and  _141
REMARK   60  A    between atoms: _143  and  _145
REMARK   61  A    between atoms: _145  and  _146
REMARK   62  A    between atoms: _145  and  _148
REMARK   63  A    between atoms: _150  and  _152
REMARK   64  A    between atoms: _152  and  _153
REMARK   65  A    between atoms: _152  and  _155
REMARK   66  A    between atoms: _155  and  _156
REMARK   67  A    between atoms: _156  and  _157
REMARK   68  A    between atoms: _157  and  _158
REMARK   69  A    between atoms: _167  and  _169
REMARK   70  A    between atoms: _169  and  _170
REMARK   71  A    between atoms: _169  and  _172
REMARK   72  A    between atoms: _172  and  _173
REMARK   73  A    between atoms: _176  and  _178
REMARK   74  A    between atoms: _178  and  _179
REMARK   75  A    between atoms: _178  and  _181
REMARK   76  A    between atoms: _181  and  _182
REMARK   77  A    between atoms: _184  and  _186
REMARK   78  A    between atoms: _186  and  _187
REMARK   79  A    between atoms: _186  and  _189
REMARK   80  A    between atoms: _189  and  _190
REMARK   81  A    between atoms: _193  and  _195
REMARK   82  A    between atoms: _195  and  _196
REMARK   83  A    between atoms: _195  and  _198
REMARK   84  A    between atoms: _198  and  _199
REMARK   85  A    between atoms: _199  and  _200
REMARK   86  A    between atoms: _200  and  _201
REMARK   87  A    between atoms: _211  and  _212
REMARK   88  A    between atoms: _217  and  _219
REMARK   89  A    between atoms: _219  and  _220
REMARK   90  A    between atoms: _219  and  _222
REMARK   91  A    between atoms: _222  and  _223
REMARK   92  A    between atoms: _223  and  _224
REMARK   93  A    between atoms: _224  and  _225
REMARK   94  A    between atoms: _234  and  _236
REMARK   95  A    between atoms: _236  and  _237
REMARK   96  A    between atoms: _236  and  _239
REMARK   97  A    between atoms: _242  and  _244
REMARK   98  A    between atoms: _244  and  _245
REMARK   99  A    between atoms: _244  and  _247
REMARK  100  A    between atoms: _250  and  _252
REMARK  101  A    between atoms: _252  and  _253
REMARK  102  A    between atoms: _252  and  _255
REMARK  103  A    between atoms: _255  and  _256
REMARK  104  A    between atoms: _256  and  _257
REMARK  105  A    between atoms: _259  and  _261
REMARK  106  A    between atoms: _261  and  _262
REMARK  107  A    between atoms: _265  and  _267
REMARK  108  A    between atoms: _267  and  _268
REMARK  109  A    between atoms: _267  and  _270
REMARK  110  A    between atoms: _270  and  _271
REMARK  111  A    between atoms: _273  and  _275
REMARK  112  A    between atoms: _275  and  _276
REMARK  113  A    between atoms: _279  and  _281
REMARK  114  A    between atoms: _281  and  _282
REMARK  115  A    between atoms: _281  and  _284
REMARK  116  A    between atoms: _284  and  _285
REMARK  117  A    between atoms: _285  and  _286
REMARK  118  A    between atoms: _291  and  _293
REMARK  119  A    between atoms: _293  and  _294
REMARK  120  A    between atoms: _293  and  _296
REMARK  121  A    between atoms: _299  and  _301
REMARK  122  A    between atoms: _301  and  _302
REMARK  123  A    between atoms: _301  and  _304
REMARK  124  A    between atoms: _304  and  _305
REMARK  125  A    between atoms: _305  and  _306
REMARK  126  A    between atoms: _306  and  _307
REMARK  127  A    between atoms: _307  and  _308
REMARK  128  A    between atoms: _312  and  _314
REMARK  129  A    between atoms: _314  and  _315
REMARK  130  A    between atoms: _314  and  _317
REMARK  131  A    between atoms: _317  and  _318
REMARK  132  A    between atoms: _320  and  _322
REMARK  133  A    between atoms: _322  and  _323
REMARK  134  A    between atoms: _326  and  _328
REMARK  135  A    between atoms: _328  and  _329
REMARK  136  A    between atoms: _328  and  _331
REMARK  137  A    between atoms: _331  and  _332
REMARK  138  A    between atoms: _335  and  _337
REMARK  139  A    between atoms: _337  and  _338
REMARK  140  A    between atoms: _337  and  _340
REMARK  141  A    between atoms: _340  and  _341
REMARK  142  A    between atoms: _341  and  _342
REMARK  143  A    between atoms: _342  and  _343
REMARK  144  A    between atoms: _352  and  _354
REMARK  145  A    between atoms: _354  and  _355
REMARK  146  A    between atoms: _354  and  _357
REMARK  147  A    between atoms: _357  and  _358
REMARK  148  A    between atoms: _361  and  _363
REMARK  149  A    between atoms: _363  and  _364
REMARK  150  A    between atoms: _363  and  _366
REMARK  151  A    between atoms: _366  and  _367
REMARK  152  A    between atoms: _372  and  _374
REMARK  153  A    between atoms: _374  and  _375
REMARK  154  A    between atoms: _374  and  _377
REMARK  155  A    between atoms: _377  and  _378
REMARK  156  A    between atoms: _381  and  _383
REMARK  157  A    between atoms: _383  and  _384
REMARK  158  A    between atoms: _383  and  _386
REMARK  159  A    between atoms: _386  and  _387
REMARK  160  A    between atoms: _390  and  _392
REMARK  161  A    between atoms: _392  and  _393
REMARK  162  A    between atoms: _392  and  _395
REMARK  163  A    between atoms: _395  and  _396
REMARK  164  A    between atoms: _398  and  _400
REMARK  165  A    between atoms: _400  and  _401
REMARK  166  A    between atoms: _400  and  _403
REMARK  167  A    between atoms: _403  and  _404
REMARK  168  A    between atoms: _404  and  _405
REMARK  169  A    between atoms: _405  and  _406
REMARK  170  A    between atoms: _415  and  _417
REMARK  171  A    between atoms: _417  and  _418
REMARK  172  A    between atoms: _422  and  _423
REMARK  173  A    between atoms: _428  and  _430
REMARK  174  A    between atoms: _430  and  _431
REMARK  175  A    between atoms: _430  and  _433
REMARK  176  A    between atoms: _433  and  _434
REMARK  177  A    between atoms: _434  and  _435
REMARK  178  A    between atoms: _437  and  _439
REMARK  179  A    between atoms: _439  and  _440
REMARK  180  A    between atoms: _439  and  _442
REMARK  181  A    between atoms: _442  and  _443
REMARK  182  A    between atoms: _446  and  _448
REMARK  183  A    between atoms: _448  and  _449
REMARK  184  A    between atoms: _448  and  _451
REMARK  185  A    between atoms: _451  and  _452
REMARK  186  A    between atoms: _455  and  _457
REMARK  187  A    between atoms: _457  and  _458
REMARK  188  A    between atoms: _457  and  _460
REMARK  189  A    between atoms: _460  and  _461
REMARK  190  A    between atoms: _461  and  _462
REMARK  191  A    between atoms: _465  and  _467
REMARK  192  A    between atoms: _467  and  _468
REMARK  193  A    between atoms: _467  and  _470
REMARK  194  A    between atoms: _470  and  _471
REMARK  195  A    between atoms: _471  and  _472
REMARK  196  A    between atoms: _475  and  _477
REMARK  197  A    between atoms: _477  and  _478
REMARK  198  A    between atoms: _477  and  _480
REMARK  199  A    between atoms: _480  and  _481
REMARK  200  A    between atoms: _484  and  _486
REMARK  201  A    between atoms: _486  and  _487
REMARK  202  A    between atoms: _486  and  _489
REMARK  203  A    between atoms: _492  and  _494
REMARK  204  A    between atoms: _494  and  _495
REMARK  205  A    between atoms: _494  and  _497
REMARK  206  A    between atoms: _497  and  _498
REMARK  207  A    between atoms: _498  and  _499
REMARK  208  A    between atoms: _499  and  _500
REMARK  209  A    between atoms: _500  and  _501
REMARK  210  A    between atoms: _505  and  _507
REMARK  211  A    between atoms: _507  and  _508
REMARK  212  A    between atoms: _507  and  _510
REMARK  213  A    between atoms: _510  and  _511
REMARK  214  A    between atoms: _511  and  _512
REMARK  215  A    between atoms: _515  and  _517
REMARK  216  A    between atoms: _517  and  _518
REMARK  217  A    between atoms: _517  and  _520
REMARK  218  A    between atoms: _520  and  _521
REMARK  219  A    between atoms: _523  and  _525
REMARK  220  A    between atoms: _525  and  _526
REMARK  221  A    between atoms: _525  and  _528
REMARK  222  A    between atoms: _528  and  _529
REMARK  223  A    between atoms: _529  and  _530
REMARK  224  A    between atoms: _530  and  _531
REMARK  225  A    between atoms: _540  and  _542
REMARK  226  A    between atoms: _542  and  _543
REMARK  227  A    between atoms: _542  and  _545
REMARK  228  A    between atoms: _545  and  _546
REMARK  229  A    between atoms: _549  and  _551
REMARK  230  A    between atoms: _551  and  _552
REMARK  231  A    between atoms: _551  and  _554
REMARK  232  A    between atoms: _554  and  _555
REMARK  233  A    between atoms: _560  and  _562
REMARK  234  A    between atoms: _562  and  _563
REMARK  235  A    between atoms: _562  and  _565
REMARK  236  A    between atoms: _565  and  _566
REMARK  237  A    between atoms: _566  and  _567
REMARK  238  A    between atoms: _567  and  _568
REMARK  239  A    between atoms: _577  and  _579
REMARK  240  A    between atoms: _579  and  _580
REMARK  241  A    between atoms: _579  and  _582
REMARK  242  A    between atoms: _582  and  _583
REMARK  243  A    between atoms: _586  and  _588
REMARK  244  A    between atoms: _588  and  _589
REMARK  245  A    between atoms: _588  and  _591
REMARK  246  A    between atoms: _591  and  _592
REMARK  247  A    between atoms: _595  and  _597
REMARK  248  A    between atoms: _597  and  _598
REMARK  249  A    between atoms: _597  and  _600
REMARK  250  A    between atoms: _600  and  _601
REMARK                            x       y       z     vdW  Elec       q    Type
REMARK                         _______ _______ _______ _____ _____    ______ ____
ROOT
ATOM      1  CA  GLY A   5    -125.991  24.500 132.458  0.00  0.00    +0.176 C 
ENDROOT
BRANCH   1   3
ATOM      2  C   THR A   4    -126.180  26.040 130.615  0.00  0.00    +0.243 C 
ATOM      3  N   GLY A   5    -126.779  25.307 131.544  0.00  0.00    -0.295 N 
ATOM      4  H   GLY A   5    -127.816  25.310 131.618  0.00  0.00    +0.150 HD
ATOM      5  O   THR A   4    -124.953  26.074 130.483  0.00  0.00    -0.273 OA
BRANCH   2   6
ATOM      6  CA  THR A   4    -127.093  26.857 129.690  0.00  0.00    +0.176 C 
BRANCH   6   8
ATOM      7  C   ALA A   3    -127.874  24.897 128.488  0.00  0.00    +0.241 C 
ATOM      8  N   THR A   4    -128.173  26.016 129.154  0.00  0.00    -0.295 N 
ATOM      9  H   THR A   4    -129.166  26.291 129.293  0.00  0.00    +0.150 HD
ATOM     10  O   ALA A   3    -126.709  24.524 128.302  0.00  0.00    -0.273 OA
BRANCH   7  11
ATOM     11  CA  ALA A   3    -129.047  24.058 127.955  0.00  0.00    +0.149 C 
ATOM     12  CB  ALA A   3    -129.458  24.559 126.568  0.00  0.00    +0.031 C 
BRANCH  11  15
ATOM     13  C   ALA A   2    -130.084  23.605 130.102  0.00  0.00    +0.241 C 
ATOM     14  O   ALA A   2    -129.056  23.057 130.529  0.00  0.00    -0.273 OA
ATOM     15  N   ALA A   3    -130.171  24.132 128.882  0.00  0.00    -0.297 N 
ATOM     16  H   ALA A   3    -131.051  24.602 128.587  0.00  0.00    +0.150 HD
BRANCH  13  17
ATOM     17  CA  ALA A   2    -131.302  23.780 131.006  0.00  0.00    +0.149 C 
ATOM     18  CB  ALA A   2    -130.813  24.163 132.408  0.00  0.00    +0.031 C 
BRANCH  17  20
ATOM     19  C   ASN A   1    -133.348  22.602 130.300  0.00  0.00    +0.239 C 
ATOM     20  N   ALA A   2    -132.326  22.732 131.141  0.00  0.00    -0.297 N 
ATOM     21  H   ALA A   2    -132.247  22.061 131.932  0.00  0.00    +0.150 HD
ATOM     22  O   ASN A   1    -133.459  23.260 129.276  0.00  0.00    -0.274 OA
BRANCH  19  23
ATOM     23  CA  ASN A   1    -134.408  21.546 130.665  0.00  0.00    +0.154 C 
BRANCH  23  24
ATOM     24  N   ASN A   1    -134.026  20.708 131.815  0.00  0.00    -0.238 NA
ATOM     25  H   ASN A   1    -134.195  21.063 132.778  0.00  0.00    +0.142 HD
ENDBRANCH  23  24
BRANCH  23  26
ATOM     26  CB  ASN A   1    -135.708  22.284 131.017  0.00  0.00    +0.111 C 
BRANCH  26  27
ATOM     27  CG  ASN A   1    -136.405  22.891 129.805  0.00  0.00    +0.221 C 
ATOM     28  OD1 ASN A   1    -136.481  24.125 129.645  0.00  0.00    -0.275 OA
ATOM     29  ND2 ASN A   1    -136.921  22.032 128.952  0.00  0.00    -0.329 N 
ATOM     30 HD21 ASN A   1    -136.834  21.010 129.126  0.00  0.00    +0.145 HD
ATOM     31 HD22 ASN A   1    -137.416  22.375 128.104  0.00  0.00    +0.145 HD
ENDBRANCH  26  27
ENDBRANCH  23  26
ENDBRANCH  19  23
ENDBRANCH  17  20
ENDBRANCH  13  17
ENDBRANCH  11  15
ENDBRANCH   7  11
ENDBRANCH   6   8
BRANCH   6  32
ATOM     32  CB  THR A   4    -127.646  28.055 130.475  0.00  0.00    +0.137 C 
ATOM     33  CG2 THR A   4    -126.510  28.939 130.974  0.00  0.00    +0.034 C 
BRANCH  32  34
ATOM     34  OG1 THR A   4    -128.499  28.828 129.622  0.00  0.00    -0.382 OA
ATOM     35  HG1 THR A   4    -129.249  28.263 129.307  0.00  0.00    +0.210 HD
ENDBRANCH  32  34
ENDBRANCH   6  32
ENDBRANCH   2   6
ENDBRANCH   1   3
BRANCH   1  36
ATOM     36  C   GLY A   5    -125.242  23.402 131.724  0.00  0.00    +0.243 C 
ATOM     37  O   GLY A   5    -124.058  23.162 131.967  0.00  0.00    -0.273 OA
ATOM     38  N   CYS A   6    -125.943  22.727 130.824  0.00  0.00    -0.296 N 
ATOM     39  H   CYS A   6    -126.941  22.975 130.669  0.00  0.00    +0.150 HD
BRANCH  38  40
ATOM     40  CA  CYS A   6    -125.351  21.644 130.044  0.00  0.00    +0.160 C 
BRANCH  40  41
ATOM     41  C   CYS A   6    -124.196  22.097 129.157  0.00  0.00    +0.242 C 
ATOM     42  O   CYS A   6    -123.098  21.536 129.231  0.00  0.00    -0.273 OA
ATOM     43  N   ARG A   7    -124.424  23.098 128.313  0.00  0.00    -0.297 N 
ATOM     44  H   ARG A   7    -125.347  23.578 128.305  0.00  0.00    +0.150 HD
BRANCH  43  45
ATOM     45  CA  ARG A   7    -123.364  23.519 127.395  0.00  0.00    +0.149 C 
BRANCH  45  46
ATOM     46  C   ARG A   7    -122.147  24.113 128.100  0.00  0.00    +0.241 C 
ATOM     47  N   LEU A   8    -122.378  24.917 129.138  0.00  0.00    -0.298 N 
ATOM     48  H   LEU A   8    -123.352  25.137 129.428  0.00  0.00    +0.150 HD
ATOM     49  O   ARG A   7    -120.998  23.807 127.730  0.00  0.00    -0.273 OA
BRANCH  47  50
ATOM     50  CA  LEU A   8    -121.235  25.489 129.868  0.00  0.00    +0.137 C 
BRANCH  50  51
ATOM     51  C   LEU A   8    -120.447  24.422 130.633  0.00  0.00    +0.227 C 
ATOM     52  O   LEU A   8    -119.211  24.466 130.674  0.00  0.00    -0.286 OA
ENDBRANCH  50  51
BRANCH  50  53
ATOM     53  CB  LEU A   8    -121.694  26.582 130.838  0.00  0.00    +0.028 C 
BRANCH  53  54
ATOM     54  CG  LEU A   8    -121.729  28.013 130.265  0.00  0.00    +0.002 C 
ATOM     55  CD2 LEU A   8    -122.159  28.995 131.368  0.00  0.00    +0.000 C 
ATOM     56  CD1 LEU A   8    -122.684  28.086 129.062  0.00  0.00    +0.000 C 
ENDBRANCH  53  54
ENDBRANCH  50  53
ENDBRANCH  47  50
ENDBRANCH  45  46
BRANCH  45  57
ATOM     57  CB  ARG A   7    -123.913  24.494 126.361  0.00  0.00    +0.033 C 
BRANCH  57  58
ATOM     58  CG  ARG A   7    -125.016  23.893 125.498  0.00  0.00    +0.045 C 
BRANCH  58  59
ATOM     59  CD  ARG A   7    -125.097  24.675 124.236  0.00  0.00    +0.174 C 
BRANCH  59  60
ATOM     60  NE  ARG A   7    -126.057  24.158 123.264  0.00  0.00    -0.265 N 
ATOM     61  CZ  ARG A   7    -127.238  24.724 123.015  0.00  0.00    +0.342 C 
ATOM     62  NH2 ARG A   7    -127.610  25.806 123.684  0.00  0.00    -0.292 N 
ATOM     63 HH21 ARG A   7    -126.980  26.214 124.404  0.00  0.00    +0.255 HD
ATOM     64 HH22 ARG A   7    -128.532  26.247 123.489  0.00  0.00    +0.255 HD
ATOM     65  NH1 ARG A   7    -128.015  24.255 122.041  0.00  0.00    -0.292 N 
ATOM     66 HH11 ARG A   7    -128.936  24.700 121.850  0.00  0.00    +0.255 HD
ATOM     67 HH12 ARG A   7    -127.701  23.444 121.471  0.00  0.00    +0.255 HD
ATOM     68  HE  ARG A   7    -125.805  23.299 122.736  0.00  0.00    +0.259 HD
ENDBRANCH  59  60
ENDBRANCH  58  59
ENDBRANCH  57  58
ENDBRANCH  45  57
ENDBRANCH  43  45
ENDBRANCH  40  41
BRANCH  40  69
ATOM     69  CB  CYS A   6    -126.423  20.976 129.171  0.00  0.00    +0.098 C 
ATOM     70  SG  CYS A   6    -125.865  19.536 128.193  0.00  0.00    -0.080 S 
ENDBRANCH  40  69
ENDBRANCH  38  40
ENDBRANCH   1  36
TORSDOF 27
REMARK  Name = ../refined-set-2016/2pqb/2pqb_pocket.pdb
REMARK  250 active torsions:
REMARK  status: ('A' for Active; 'I' for Inactive)
REMARK    1  A    between atoms: _1  and  _3
REMARK    2  A    between atoms: _3  and  _4
REMARK    3  A    between atoms: _3  and  _6
REMARK    4  A    between atoms: _6  and  _7
REMARK    5  A    between atoms: _10  and  _12
REMARK    6  A    between atoms: _12  and  _13
REMARK    7  A    between atoms: _12  and  _15
REMARK    8  A    between atoms: _15  and  _16
REMARK    9  A    between atoms: _16  and  _17
REMARK   10  A    between atoms: _17  and  _18
REMARK   11  A    between atoms: _18  and  _19
REMARK   12  A    between atoms: _23  and  _25
REMARK   13  A    between atoms: _25  and  _26
REMARK   14  A    between atoms: _25  and  _28
REMARK   15  A    between atoms: _28  and  _29
REMARK   16  A    between atoms: _31  and  _33
REMARK   17  A    between atoms: _33  and  _34
REMARK   18  A    between atoms: _33  and  _36
REMARK   19  A    between atoms: _36  and  _37
REMARK   20  A    between atoms: _40  and  _42
REMARK   21  A    between atoms: _42  and  _43
REMARK   22  A    between atoms: _42  and  _45
REMARK   23  A    between atoms: _45  and  _46
REMARK   24  A    between atoms: _48  and  _50
REMARK   25  A    between atoms: _50  and  _51
REMARK   26  A    between atoms: _50  and  _53
REMARK   27  A    between atoms: _53  and  _54
REMARK   28  A    between atoms: _59  and  _61
REMARK   29  A    between atoms: _61  and  _62
REMARK   30  A    between atoms: _61  and  _64
REMARK   31  A    between atoms: _64  and  _65
REMARK   32  A    between atoms: _65  and  _66
REMARK   33  A    between atoms: _66  and  _67
REMARK   34  A    between atoms: _76  and  _78
REMARK   35  A    between atoms: _78  and  _79
REMARK   36  A    between atoms: _78  and  _81
REMARK   37  A    between atoms: _81  and  _82
REMARK   38  A    between atoms: _85  and  _87
REMARK   39  A    between atoms: _87  and  _88
REMARK   40  A    between atoms: _87  and  _90
REMARK   41  A    between atoms: _90  and  _91
REMARK   42  A    between atoms: _94  and  _96
REMARK   43  A    between atoms: _96  and  _97
REMARK   44  A    between atoms: _96  and  _99
REMARK   45  A    between atoms: _99  and  _100
REMARK   46  A    between atoms: _106  and  _108
REMARK   47  A    between atoms: _108  and  _109
REMARK   48  A    between atoms: _108  and  _111
REMARK   49  A    between atoms: _111  and  _112
REMARK   50  A    between atoms: _117  and  _119
REMARK   51  A    between atoms: _119  and  _120
REMARK   52  A    between atoms: _123  and  _125
REMARK   53  A    between atoms: _125  and  _126
REMARK   54  A    between atoms: _129  and  _131
REMARK   55  A    between atoms: _131  and  _132
REMARK   56  A    between atoms: _131  and  _134
REMARK   57  A    between atoms: _134  and  _135
REMARK   58  A    between atoms: _138  and  _140
REMARK   59  A    between atoms: _140  and  _141
REMARK   60  A    between atoms: _143  and  _145
REMARK   61  A    between atoms: _145  and  _146
REMARK   62  A    between atoms: _145  and  _148
REMARK   63  A    between atoms: _150  and  _152
REMARK   64  A    between atoms: _152  and  _153
REMARK   65  A    between atoms: _152  and  _155
REMARK   66  A    between atoms: _155  and  _156
REMARK   67  A    between atoms: _156  and  _157
REMARK   68  A    between atoms: _157  and  _158
REMARK   69  A    between atoms: _167  and  _169
REMARK   70  A    between atoms: _169  and  _170
REMARK   71  A    between atoms: _169  and  _172
REMARK   72  A    between atoms: _172  and  _173
REMARK   73  A    between atoms: _176  and  _178
REMARK   74  A    between atoms: _178  and  _179
REMARK   75  A    between atoms: _178  and  _181
REMARK   76  A    between atoms: _181  and  _182
REMARK   77  A    between atoms: _184  and  _186
REMARK   78  A    between atoms: _186  and  _187
REMARK   79  A    between atoms: _186  and  _189
REMARK   80  A    between atoms: _189  and  _190
REMARK   81  A    between atoms: _193  and  _195
REMARK   82  A    between atoms: _195  and  _196
REMARK   83  A    between atoms: _195  and  _198
REMARK   84  A    between atoms: _198  and  _199
REMARK   85  A    between atoms: _199  and  _200
REMARK   86  A    between atoms: _200  and  _201
REMARK   87  A    between atoms: _211  and  _212
REMARK   88  A    between atoms: _217  and  _219
REMARK   89  A    between atoms: _219  and  _220
REMARK   90  A    between atoms: _219  and  _222
REMARK   91  A    between atoms: _222  and  _223
REMARK   92  A    between atoms: _223  and  _224
REMARK   93  A    between atoms: _224  and  _225
REMARK   94  A    between atoms: _234  and  _236
REMARK   95  A    between atoms: _236  and  _237
REMARK   96  A    between atoms: _236  and  _239
REMARK   97  A    between atoms: _242  and  _244
REMARK   98  A    between atoms: _244  and  _245
REMARK   99  A    between atoms: _244  and  _247
REMARK  100  A    between atoms: _250  and  _252
REMARK  101  A    between atoms: _252  and  _253
REMARK  102  A    between atoms: _252  and  _255
REMARK  103  A    between atoms: _255  and  _256
REMARK  104  A    between atoms: _256  and  _257
REMARK  105  A    between atoms: _259  and  _261
REMARK  106  A    between atoms: _261  and  _262
REMARK  107  A    between atoms: _265  and  _267
REMARK  108  A    between atoms: _267  and  _268
REMARK  109  A    between atoms: _267  and  _270
REMARK  110  A    between atoms: _270  and  _271
REMARK  111  A    between atoms: _273  and  _275
REMARK  112  A    between atoms: _275  and  _276
REMARK  113  A    between atoms: _279  and  _281
REMARK  114  A    between atoms: _281  and  _282
REMARK  115  A    between atoms: _281  and  _284
REMARK  116  A    between atoms: _284  and  _285
REMARK  117  A    between atoms: _285  and  _286
REMARK  118  A    between atoms: _291  and  _293
REMARK  119  A    between atoms: _293  and  _294
REMARK  120  A    between atoms: _293  and  _296
REMARK  121  A    between atoms: _299  and  _301
REMARK  122  A    between atoms: _301  and  _302
REMARK  123  A    between atoms: _301  and  _304
REMARK  124  A    between atoms: _304  and  _305
REMARK  125  A    between atoms: _305  and  _306
REMARK  126  A    between atoms: _306  and  _307
REMARK  127  A    between atoms: _307  and  _308
REMARK  128  A    between atoms: _312  and  _314
REMARK  129  A    between atoms: _314  and  _315
REMARK  130  A    between atoms: _314  and  _317
REMARK  131  A    between atoms: _317  and  _318
REMARK  132  A    between atoms: _320  and  _322
REMARK  133  A    between atoms: _322  and  _323
REMARK  134  A    between atoms: _326  and  _328
REMARK  135  A    between atoms: _328  and  _329
REMARK  136  A    between atoms: _328  and  _331
REMARK  137  A    between atoms: _331  and  _332
REMARK  138  A    between atoms: _335  and  _337
REMARK  139  A    between atoms: _337  and  _338
REMARK  140  A    between atoms: _337  and  _340
REMARK  141  A    between atoms: _340  and  _341
REMARK  142  A    between atoms: _341  and  _342
REMARK  143  A    between atoms: _342  and  _343
REMARK  144  A    between atoms: _352  and  _354
REMARK  145  A    between atoms: _354  and  _355
REMARK  146  A    between atoms: _354  and  _357
REMARK  147  A    between atoms: _357  and  _358
REMARK  148  A    between atoms: _361  and  _363
REMARK  149  A    between atoms: _363  and  _364
REMARK  150  A    between atoms: _363  and  _366
REMARK  151  A    between atoms: _366  and  _367
REMARK  152  A    between atoms: _372  and  _374
REMARK  153  A    between atoms: _374  and  _375
REMARK  154  A    between atoms: _374  and  _377
REMARK  155  A    between atoms: _377  and  _378
REMARK  156  A    between atoms: _381  and  _383
REMARK  157  A    between atoms: _383  and  _384
REMARK  158  A    between atoms: _383  and  _386
REMARK  159  A    between atoms: _386  and  _387
REMARK  160  A    between atoms: _390  and  _392
REMARK  161  A    between atoms: _392  and  _393
REMARK  162  A    between atoms: _392  and  _395
REMARK  163  A    between atoms: _395  and  _396
REMARK  164  A    between atoms: _398  and  _400
REMARK  165  A    between atoms: _400  and  _401
REMARK  166  A    between atoms: _400  and  _403
REMARK  167  A    between atoms: _403  and  _404
REMARK  168  A    between atoms: _404  and  _405
REMARK  169  A    between atoms: _405  and  _406
REMARK  170  A    between atoms: _415  and  _417
REMARK  171  A    between atoms: _417  and  _418
REMARK  172  A    between atoms: _422  and  _423
REMARK  173  A    between atoms: _428  and  _430
REMARK  174  A    between atoms: _430  and  _431
REMARK  175  A    between atoms: _430  and  _433
REMARK  176  A    between atoms: _433  and  _434
REMARK  177  A    between atoms: _434  and  _435
REMARK  178  A    between atoms: _437  and  _439
REMARK  179  A    between atoms: _439  and  _440
REMARK  180  A    between atoms: _439  and  _442
REMARK  181  A    between atoms: _442  and  _443
REMARK  182  A    between atoms: _446  and  _448
REMARK  183  A    between atoms: _448  and  _449
REMARK  184  A    between atoms: _448  and  _451
REMARK  185  A    between atoms: _451  and  _452
REMARK  186  A    between atoms: _455  and  _457
REMARK  187  A    between atoms: _457  and  _458
REMARK  188  A    between atoms: _457  and  _460
REMARK  189  A    between atoms: _460  and  _461
REMARK  190  A    between atoms: _461  and  _462
REMARK  191  A    between atoms: _465  and  _467
REMARK  192  A    between atoms: _467  and  _468
REMARK  193  A    between atoms: _467  and  _470
REMARK  194  A    between atoms: _470  and  _471
REMARK  195  A    between atoms: _471  and  _472
REMARK  196  A    between atoms: _475  and  _477
REMARK  197  A    between atoms: _477  and  _478
REMARK  198  A    between atoms: _477  and  _480
REMARK  199  A    between atoms: _480  and  _481
REMARK  200  A    between atoms: _484  and  _486
REMARK  201  A    between atoms: _486  and  _487
REMARK  202  A    between atoms: _486  and  _489
REMARK  203  A    between atoms: _492  and  _494
REMARK  204  A    between atoms: _494  and  _495
REMARK  205  A    between atoms: _494  and  _497
REMARK  206  A    between atoms: _497  and  _498
REMARK  207  A    between atoms: _498  and  _499
REMARK  208  A    between atoms: _499  and  _500
REMARK  209  A    between atoms: _500  and  _501
REMARK  210  A    between atoms: _505  and  _507
REMARK  211  A    between atoms: _507  and  _508
REMARK  212  A    between atoms: _507  and  _510
REMARK  213  A    between atoms: _510  and  _511
REMARK  214  A    between atoms: _511  and  _512
REMARK  215  A    between atoms: _515  and  _517
REMARK  216  A    between atoms: _517  and  _518
REMARK  217  A    between atoms: _517  and  _520
REMARK  218  A    between atoms: _520  and  _521
REMARK  219  A    between atoms: _523  and  _525
REMARK  220  A    between atoms: _525  and  _526
REMARK  221  A    between atoms: _525  and  _528
REMARK  222  A    between atoms: _528  and  _529
REMARK  223  A    between atoms: _529  and  _530
REMARK  224  A    between atoms: _530  and  _531
REMARK  225  A    between atoms: _540  and  _542
REMARK  226  A    between atoms: _542  and  _543
REMARK  227  A    between atoms: _542  and  _545
REMARK  228  A    between atoms: _545  and  _546
REMARK  229  A    between atoms: _549  and  _551
REMARK  230  A    between atoms: _551  and  _552
REMARK  231  A    between atoms: _551  and  _554
REMARK  232  A    between atoms: _554  and  _555
REMARK  233  A    between atoms: _560  and  _562
REMARK  234  A    between atoms: _562  and  _563
REMARK  235  A    between atoms: _562  and  _565
REMARK  236  A    between atoms: _565  and  _566
REMARK  237  A    between atoms: _566  and  _567
REMARK  238  A    between atoms: _567  and  _568
REMARK  239  A    between atoms: _577  and  _579
REMARK  240  A    between atoms: _579  and  _580
REMARK  241  A    between atoms: _579  and  _582
REMARK  242  A    between atoms: _582  and  _583
REMARK  243  A    between atoms: _586  and  _588
REMARK  244  A    between atoms: _588  and  _589
REMARK  245  A    between atoms: _588  and  _591
REMARK  246  A    between atoms: _591  and  _592
REMARK  247  A    between atoms: _595  and  _597
REMARK  248  A    between atoms: _597  and  _598
REMARK  249  A    between atoms: _597  and  _600
REMARK  250  A    between atoms: _600  and  _601
REMARK                            x       y       z     vdW  Elec       q    Type
REMARK                         _______ _______ _______ _____ _____    ______ ____
ROOT
ATOM      1  C   SER A   1    -135.214  19.345 124.873  0.00  0.00    +0.241 C 
ATOM      2  N   LEU A   2    -134.434  19.263 125.947  0.00  0.00    -0.298 N 
ATOM      3  H   LEU A   2    -134.863  19.078 126.876  0.00  0.00    +0.150 HD
ATOM      4  O   SER A   1    -134.759  19.544 123.742  0.00  0.00    -0.274 OA
ENDROOT
BRANCH   1   5
ATOM      5  CA  SER A   1    -136.735  19.172 125.093  0.00  0.00    +0.174 C 
BRANCH   5   6
ATOM      6  N   SER A   1    -137.028  17.941 125.832  0.00  0.00    -0.236 NA
ATOM      7  H   SER A   1    -137.321  18.003 126.828  0.00  0.00    +0.142 HD
ENDBRANCH   5   6
BRANCH   5   8
ATOM      8  CB  SER A   1    -137.314  20.379 125.856  0.00  0.00    +0.163 C 
BRANCH   8   9
ATOM      9  OG  SER A   1    -136.686  21.611 125.508  0.00  0.00    -0.380 OA
ATOM     10  H   SER A   1    -136.807  21.780 124.540  0.00  0.00    +0.211 HD
ENDBRANCH   8   9
ENDBRANCH   5   8
ENDBRANCH   1   5
BRANCH   2  11
ATOM     11  CA  LEU A   2    -132.976  19.429 125.846  0.00  0.00    +0.137 C 
BRANCH  11  12
ATOM     12  C   LEU A   2    -132.313  18.385 124.942  0.00  0.00    +0.227 C 
ATOM     13  O   LEU A   2    -131.381  18.682 124.196  0.00  0.00    -0.286 OA
ENDBRANCH  11  12
BRANCH  11  14
ATOM     14  CB  LEU A   2    -132.334  19.365 127.238  0.00  0.00    +0.028 C 
BRANCH  14  15
ATOM     15  CG  LEU A   2    -130.828  19.691 127.278  0.00  0.00    +0.002 C 
ATOM     16  CD2 LEU A   2    -130.362  19.691 128.746  0.00  0.00    +0.000 C 
ATOM     17  CD1 LEU A   2    -130.557  21.059 126.679  0.00  0.00    +0.000 C 
ENDBRANCH  14  15
ENDBRANCH  11  14
ENDBRANCH   2  11
TORSDOF 8
REMARK  Name = ../refined-set-2016/2pqb/2pqb_pocket.pdb
REMARK  250 active torsions:
REMARK  status: ('A' for Active; 'I' for Inactive)
REMARK    1  A    between atoms: _1  and  _3
REMARK    2  A    between atoms: _3  and  _4
REMARK    3  A    between atoms: _3  and  _6
REMARK    4  A    between atoms: _6  and  _7
REMARK    5  A    between atoms: _10  and  _12
REMARK    6  A    between atoms: _12  and  _13
REMARK    7  A    between atoms: _12  and  _15
REMARK    8  A    between atoms: _15  and  _16
REMARK    9  A    between atoms: _16  and  _17
REMARK   10  A    between atoms: _17  and  _18
REMARK   11  A    between atoms: _18  and  _19
REMARK   12  A    between atoms: _23  and  _25
REMARK   13  A    between atoms: _25  and  _26
REMARK   14  A    between atoms: _25  and  _28
REMARK   15  A    between atoms: _28  and  _29
REMARK   16  A    between atoms: _31  and  _33
REMARK   17  A    between atoms: _33  and  _34
REMARK   18  A    between atoms: _33  and  _36
REMARK   19  A    between atoms: _36  and  _37
REMARK   20  A    between atoms: _40  and  _42
REMARK   21  A    between atoms: _42  and  _43
REMARK   22  A    between atoms: _42  and  _45
REMARK   23  A    between atoms: _45  and  _46
REMARK   24  A    between atoms: _48  and  _50
REMARK   25  A    between atoms: _50  and  _51
REMARK   26  A    between atoms: _50  and  _53
REMARK   27  A    between atoms: _53  and  _54
REMARK   28  A    between atoms: _59  and  _61
REMARK   29  A    between atoms: _61  and  _62
REMARK   30  A    between atoms: _61  and  _64
REMARK   31  A    between atoms: _64  and  _65
REMARK   32  A    between atoms: _65  and  _66
REMARK   33  A    between atoms: _66  and  _67
REMARK   34  A    between atoms: _76  and  _78
REMARK   35  A    between atoms: _78  and  _79
REMARK   36  A    between atoms: _78  and  _81
REMARK   37  A    between atoms: _81  and  _82
REMARK   38  A    between atoms: _85  and  _87
REMARK   39  A    between atoms: _87  and  _88
REMARK   40  A    between atoms: _87  and  _90
REMARK   41  A    between atoms: _90  and  _91
REMARK   42  A    between atoms: _94  and  _96
REMARK   43  A    between atoms: _96  and  _97
REMARK   44  A    between atoms: _96  and  _99
REMARK   45  A    between atoms: _99  and  _100
REMARK   46  A    between atoms: _106  and  _108
REMARK   47  A    between atoms: _108  and  _109
REMARK   48  A    between atoms: _108  and  _111
REMARK   49  A    between atoms: _111  and  _112
REMARK   50  A    between atoms: _117  and  _119
REMARK   51  A    between atoms: _119  and  _120
REMARK   52  A    between atoms: _123  and  _125
REMARK   53  A    between atoms: _125  and  _126
REMARK   54  A    between atoms: _129  and  _131
REMARK   55  A    between atoms: _131  and  _132
REMARK   56  A    between atoms: _131  and  _134
REMARK   57  A    between atoms: _134  and  _135
REMARK   58  A    between atoms: _138  and  _140
REMARK   59  A    between atoms: _140  and  _141
REMARK   60  A    between atoms: _143  and  _145
REMARK   61  A    between atoms: _145  and  _146
REMARK   62  A    between atoms: _145  and  _148
REMARK   63  A    between atoms: _150  and  _152
REMARK   64  A    between atoms: _152  and  _153
REMARK   65  A    between atoms: _152  and  _155
REMARK   66  A    between atoms: _155  and  _156
REMARK   67  A    between atoms: _156  and  _157
REMARK   68  A    between atoms: _157  and  _158
REMARK   69  A    between atoms: _167  and  _169
REMARK   70  A    between atoms: _169  and  _170
REMARK   71  A    between atoms: _169  and  _172
REMARK   72  A    between atoms: _172  and  _173
REMARK   73  A    between atoms: _176  and  _178
REMARK   74  A    between atoms: _178  and  _179
REMARK   75  A    between atoms: _178  and  _181
REMARK   76  A    between atoms: _181  and  _182
REMARK   77  A    between atoms: _184  and  _186
REMARK   78  A    between atoms: _186  and  _187
REMARK   79  A    between atoms: _186  and  _189
REMARK   80  A    between atoms: _189  and  _190
REMARK   81  A    between atoms: _193  and  _195
REMARK   82  A    between atoms: _195  and  _196
REMARK   83  A    between atoms: _195  and  _198
REMARK   84  A    between atoms: _198  and  _199
REMARK   85  A    between atoms: _199  and  _200
REMARK   86  A    between atoms: _200  and  _201
REMARK   87  A    between atoms: _211  and  _212
REMARK   88  A    between atoms: _217  and  _219
REMARK   89  A    between atoms: _219  and  _220
REMARK   90  A    between atoms: _219  and  _222
REMARK   91  A    between atoms: _222  and  _223
REMARK   92  A    between atoms: _223  and  _224
REMARK   93  A    between atoms: _224  and  _225
REMARK   94  A    between atoms: _234  and  _236
REMARK   95  A    between atoms: _236  and  _237
REMARK   96  A    between atoms: _236  and  _239
REMARK   97  A    between atoms: _242  and  _244
REMARK   98  A    between atoms: _244  and  _245
REMARK   99  A    between atoms: _244  and  _247
REMARK  100  A    between atoms: _250  and  _252
REMARK  101  A    between atoms: _252  and  _253
REMARK  102  A    between atoms: _252  and  _255
REMARK  103  A    between atoms: _255  and  _256
REMARK  104  A    between atoms: _256  and  _257
REMARK  105  A    between atoms: _259  and  _261
REMARK  106  A    between atoms: _261  and  _262
REMARK  107  A    between atoms: _265  and  _267
REMARK  108  A    between atoms: _267  and  _268
REMARK  109  A    between atoms: _267  and  _270
REMARK  110  A    between atoms: _270  and  _271
REMARK  111  A    between atoms: _273  and  _275
REMARK  112  A    between atoms: _275  and  _276
REMARK  113  A    between atoms: _279  and  _281
REMARK  114  A    between atoms: _281  and  _282
REMARK  115  A    between atoms: _281  and  _284
REMARK  116  A    between atoms: _284  and  _285
REMARK  117  A    between atoms: _285  and  _286
REMARK  118  A    between atoms: _291  and  _293
REMARK  119  A    between atoms: _293  and  _294
REMARK  120  A    between atoms: _293  and  _296
REMARK  121  A    between atoms: _299  and  _301
REMARK  122  A    between atoms: _301  and  _302
REMARK  123  A    between atoms: _301  and  _304
REMARK  124  A    between atoms: _304  and  _305
REMARK  125  A    between atoms: _305  and  _306
REMARK  126  A    between atoms: _306  and  _307
REMARK  127  A    between atoms: _307  and  _308
REMARK  128  A    between atoms: _312  and  _314
REMARK  129  A    between atoms: _314  and  _315
REMARK  130  A    between atoms: _314  and  _317
REMARK  131  A    between atoms: _317  and  _318
REMARK  132  A    between atoms: _320  and  _322
REMARK  133  A    between atoms: _322  and  _323
REMARK  134  A    between atoms: _326  and  _328
REMARK  135  A    between atoms: _328  and  _329
REMARK  136  A    between atoms: _328  and  _331
REMARK  137  A    between atoms: _331  and  _332
REMARK  138  A    between atoms: _335  and  _337
REMARK  139  A    between atoms: _337  and  _338
REMARK  140  A    between atoms: _337  and  _340
REMARK  141  A    between atoms: _340  and  _341
REMARK  142  A    between atoms: _341  and  _342
REMARK  143  A    between atoms: _342  and  _343
REMARK  144  A    between atoms: _352  and  _354
REMARK  145  A    between atoms: _354  and  _355
REMARK  146  A    between atoms: _354  and  _357
REMARK  147  A    between atoms: _357  and  _358
REMARK  148  A    between atoms: _361  and  _363
REMARK  149  A    between atoms: _363  and  _364
REMARK  150  A    between atoms: _363  and  _366
REMARK  151  A    between atoms: _366  and  _367
REMARK  152  A    between atoms: _372  and  _374
REMARK  153  A    between atoms: _374  and  _375
REMARK  154  A    between atoms: _374  and  _377
REMARK  155  A    between atoms: _377  and  _378
REMARK  156  A    between atoms: _381  and  _383
REMARK  157  A    between atoms: _383  and  _384
REMARK  158  A    between atoms: _383  and  _386
REMARK  159  A    between atoms: _386  and  _387
REMARK  160  A    between atoms: _390  and  _392
REMARK  161  A    between atoms: _392  and  _393
REMARK  162  A    between atoms: _392  and  _395
REMARK  163  A    between atoms: _395  and  _396
REMARK  164  A    between atoms: _398  and  _400
REMARK  165  A    between atoms: _400  and  _401
REMARK  166  A    between atoms: _400  and  _403
REMARK  167  A    between atoms: _403  and  _404
REMARK  168  A    between atoms: _404  and  _405
REMARK  169  A    between atoms: _405  and  _406
REMARK  170  A    between atoms: _415  and  _417
REMARK  171  A    between atoms: _417  and  _418
REMARK  172  A    between atoms: _422  and  _423
REMARK  173  A    between atoms: _428  and  _430
REMARK  174  A    between atoms: _430  and  _431
REMARK  175  A    between atoms: _430  and  _433
REMARK  176  A    between atoms: _433  and  _434
REMARK  177  A    between atoms: _434  and  _435
REMARK  178  A    between atoms: _437  and  _439
REMARK  179  A    between atoms: _439  and  _440
REMARK  180  A    between atoms: _439  and  _442
REMARK  181  A    between atoms: _442  and  _443
REMARK  182  A    between atoms: _446  and  _448
REMARK  183  A    between atoms: _448  and  _449
REMARK  184  A    between atoms: _448  and  _451
REMARK  185  A    between atoms: _451  and  _452
REMARK  186  A    between atoms: _455  and  _457
REMARK  187  A    between atoms: _457  and  _458
REMARK  188  A    between atoms: _457  and  _460
REMARK  189  A    between atoms: _460  and  _461
REMARK  190  A    between atoms: _461  and  _462
REMARK  191  A    between atoms: _465  and  _467
REMARK  192  A    between atoms: _467  and  _468
REMARK  193  A    between atoms: _467  and  _470
REMARK  194  A    between atoms: _470  and  _471
REMARK  195  A    between atoms: _471  and  _472
REMARK  196  A    between atoms: _475  and  _477
REMARK  197  A    between atoms: _477  and  _478
REMARK  198  A    between atoms: _477  and  _480
REMARK  199  A    between atoms: _480  and  _481
REMARK  200  A    between atoms: _484  and  _486
REMARK  201  A    between atoms: _486  and  _487
REMARK  202  A    between atoms: _486  and  _489
REMARK  203  A    between atoms: _492  and  _494
REMARK  204  A    between atoms: _494  and  _495
REMARK  205  A    between atoms: _494  and  _497
REMARK  206  A    between atoms: _497  and  _498
REMARK  207  A    between atoms: _498  and  _499
REMARK  208  A    between atoms: _499  and  _500
REMARK  209  A    between atoms: _500  and  _501
REMARK  210  A    between atoms: _505  and  _507
REMARK  211  A    between atoms: _507  and  _508
REMARK  212  A    between atoms: _507  and  _510
REMARK  213  A    between atoms: _510  and  _511
REMARK  214  A    between atoms: _511  and  _512
REMARK  215  A    between atoms: _515  and  _517
REMARK  216  A    between atoms: _517  and  _518
REMARK  217  A    between atoms: _517  and  _520
REMARK  218  A    between atoms: _520  and  _521
REMARK  219  A    between atoms: _523  and  _525
REMARK  220  A    between atoms: _525  and  _526
REMARK  221  A    between atoms: _525  and  _528
REMARK  222  A    between atoms: _528  and  _529
REMARK  223  A    between atoms: _529  and  _530
REMARK  224  A    between atoms: _530  and  _531
REMARK  225  A    between atoms: _540  and  _542
REMARK  226  A    between atoms: _542  and  _543
REMARK  227  A    between atoms: _542  and  _545
REMARK  228  A    between atoms: _545  and  _546
REMARK  229  A    between atoms: _549  and  _551
REMARK  230  A    between atoms: _551  and  _552
REMARK  231  A    between atoms: _551  and  _554
REMARK  232  A    between atoms: _554  and  _555
REMARK  233  A    between atoms: _560  and  _562
REMARK  234  A    between atoms: _562  and  _563
REMARK  235  A    between atoms: _562  and  _565
REMARK  236  A    between atoms: _565  and  _566
REMARK  237  A    between atoms: _566  and  _567
REMARK  238  A    between atoms: _567  and  _568
REMARK  239  A    between atoms: _577  and  _579
REMARK  240  A    between atoms: _579  and  _580
REMARK  241  A    between atoms: _579  and  _582
REMARK  242  A    between atoms: _582  and  _583
REMARK  243  A    between atoms: _586  and  _588
REMARK  244  A    between atoms: _588  and  _589
REMARK  245  A    between atoms: _588  and  _591
REMARK  246  A    between atoms: _591  and  _592
REMARK  247  A    between atoms: _595  and  _597
REMARK  248  A    between atoms: _597  and  _598
REMARK  249  A    between atoms: _597  and  _600
REMARK  250  A    between atoms: _600  and  _601
REMARK                            x       y       z     vdW  Elec       q    Type
REMARK                         _______ _______ _______ _____ _____    ______ ____
ROOT
ATOM      1  CA  ARG A   1    -131.250  20.547 120.892  0.00  0.00    +0.145 C 
ENDROOT
BRANCH   1   2
ATOM      2  C   ARG A   1    -129.825  20.243 120.436  0.00  0.00    +0.241 C 
ATOM      3  O   ARG A   1    -129.198  19.260 120.875  0.00  0.00    -0.273 OA
ATOM      4  N   PRO A   2    -129.278  21.087 119.553  0.00  0.00    -0.273 N 
ATOM      5  CA  PRO A   2    -127.919  20.896 119.026  0.00  0.00    +0.140 C 
ATOM      6  CB  PRO A   2    -127.882  21.833 117.825  0.00  0.00    +0.030 C 
ATOM      7  CG  PRO A   2    -128.716  23.010 118.319  0.00  0.00    +0.024 C 
ATOM      8  CD  PRO A   2    -129.910  22.288 118.963  0.00  0.00    +0.094 C 
BRANCH   5   9
ATOM      9  C   PRO A   2    -126.764  21.166 119.961  0.00  0.00    +0.227 C 
ATOM     10  O   PRO A   2    -126.688  22.215 120.578  0.00  0.00    -0.286 OA
ENDBRANCH   5   9
ENDBRANCH   1   2
BRANCH   1  11
ATOM     11  N   ARG A   1    -132.041  19.366 121.271  0.00  0.00    -0.238 NA
ATOM     12  H   ARG A   1    -132.168  19.129 122.276  0.00  0.00    +0.142 HD
ENDBRANCH   1  11
BRANCH   1  13
ATOM     13  CB  ARG A   1    -131.280  21.545 122.058  0.00  0.00    +0.030 C 
BRANCH  13  14
ATOM     14  CG  ARG A   1    -132.708  22.084 122.290  0.00  0.00    +0.045 C 
BRANCH  14  15
ATOM     15  CD  ARG A   1    -132.825  22.900 123.539  0.00  0.00    +0.174 C 
BRANCH  15  16
ATOM     16  NE  ARG A   1    -132.244  24.250 123.406  0.00  0.00    -0.265 N 
ATOM     17  CZ  ARG A   1    -132.208  25.118 124.405  0.00  0.00    +0.342 C 
ATOM     18  NH2 ARG A   1    -132.723  24.770 125.580  0.00  0.00    -0.292 N 
ATOM     19 HH21 ARG A   1    -132.703  25.440 126.375  0.00  0.00    +0.255 HD
ATOM     20 HH22 ARG A   1    -133.146  23.828 125.704  0.00  0.00    +0.255 HD
ATOM     21  NH1 ARG A   1    -131.665  26.325 124.246  0.00  0.00    -0.292 N 
ATOM     22 HH11 ARG A   1    -131.645  26.995 125.041  0.00  0.00    +0.255 HD
ATOM     23 HH12 ARG A   1    -131.261  26.597 123.327  0.00  0.00    +0.255 HD
ATOM     24  HE  ARG A   1    -131.846  24.532 122.488  0.00  0.00    +0.259 HD
ENDBRANCH  15  16
ENDBRANCH  14  15
ENDBRANCH  13  14
ENDBRANCH   1  13
TORSDOF 7
REMARK  Name = ../refined-set-2016/2pqb/2pqb_pocket.pdb
REMARK  250 active torsions:
REMARK  status: ('A' for Active; 'I' for Inactive)
REMARK    1  A    between atoms: _1  and  _3
REMARK    2  A    between atoms: _3  and  _4
REMARK    3  A    between atoms: _3  and  _6
REMARK    4  A    between atoms: _6  and  _7
REMARK    5  A    between atoms: _10  and  _12
REMARK    6  A    between atoms: _12  and  _13
REMARK    7  A    between atoms: _12  and  _15
REMARK    8  A    between atoms: _15  and  _16
REMARK    9  A    between atoms: _16  and  _17
REMARK   10  A    between atoms: _17  and  _18
REMARK   11  A    between atoms: _18  and  _19
REMARK   12  A    between atoms: _23  and  _25
REMARK   13  A    between atoms: _25  and  _26
REMARK   14  A    between atoms: _25  and  _28
REMARK   15  A    between atoms: _28  and  _29
REMARK   16  A    between atoms: _31  and  _33
REMARK   17  A    between atoms: _33  and  _34
REMARK   18  A    between atoms: _33  and  _36
REMARK   19  A    between atoms: _36  and  _37
REMARK   20  A    between atoms: _40  and  _42
REMARK   21  A    between atoms: _42  and  _43
REMARK   22  A    between atoms: _42  and  _45
REMARK   23  A    between atoms: _45  and  _46
REMARK   24  A    between atoms: _48  and  _50
REMARK   25  A    between atoms: _50  and  _51
REMARK   26  A    between atoms: _50  and  _53
REMARK   27  A    between atoms: _53  and  _54
REMARK   28  A    between atoms: _59  and  _61
REMARK   29  A    between atoms: _61  and  _62
REMARK   30  A    between atoms: _61  and  _64
REMARK   31  A    between atoms: _64  and  _65
REMARK   32  A    between atoms: _65  and  _66
REMARK   33  A    between atoms: _66  and  _67
REMARK   34  A    between atoms: _76  and  _78
REMARK   35  A    between atoms: _78  and  _79
REMARK   36  A    between atoms: _78  and  _81
REMARK   37  A    between atoms: _81  and  _82
REMARK   38  A    between atoms: _85  and  _87
REMARK   39  A    between atoms: _87  and  _88
REMARK   40  A    between atoms: _87  and  _90
REMARK   41  A    between atoms: _90  and  _91
REMARK   42  A    between atoms: _94  and  _96
REMARK   43  A    between atoms: _96  and  _97
REMARK   44  A    between atoms: _96  and  _99
REMARK   45  A    between atoms: _99  and  _100
REMARK   46  A    between atoms: _106  and  _108
REMARK   47  A    between atoms: _108  and  _109
REMARK   48  A    between atoms: _108  and  _111
REMARK   49  A    between atoms: _111  and  _112
REMARK   50  A    between atoms: _117  and  _119
REMARK   51  A    between atoms: _119  and  _120
REMARK   52  A    between atoms: _123  and  _125
REMARK   53  A    between atoms: _125  and  _126
REMARK   54  A    between atoms: _129  and  _131
REMARK   55  A    between atoms: _131  and  _132
REMARK   56  A    between atoms: _131  and  _134
REMARK   57  A    between atoms: _134  and  _135
REMARK   58  A    between atoms: _138  and  _140
REMARK   59  A    between atoms: _140  and  _141
REMARK   60  A    between atoms: _143  and  _145
REMARK   61  A    between atoms: _145  and  _146
REMARK   62  A    between atoms: _145  and  _148
REMARK   63  A    between atoms: _150  and  _152
REMARK   64  A    between atoms: _152  and  _153
REMARK   65  A    between atoms: _152  and  _155
REMARK   66  A    between atoms: _155  and  _156
REMARK   67  A    between atoms: _156  and  _157
REMARK   68  A    between atoms: _157  and  _158
REMARK   69  A    between atoms: _167  and  _169
REMARK   70  A    between atoms: _169  and  _170
REMARK   71  A    between atoms: _169  and  _172
REMARK   72  A    between atoms: _172  and  _173
REMARK   73  A    between atoms: _176  and  _178
REMARK   74  A    between atoms: _178  and  _179
REMARK   75  A    between atoms: _178  and  _181
REMARK   76  A    between atoms: _181  and  _182
REMARK   77  A    between atoms: _184  and  _186
REMARK   78  A    between atoms: _186  and  _187
REMARK   79  A    between atoms: _186  and  _189
REMARK   80  A    between atoms: _189  and  _190
REMARK   81  A    between atoms: _193  and  _195
REMARK   82  A    between atoms: _195  and  _196
REMARK   83  A    between atoms: _195  and  _198
REMARK   84  A    between atoms: _198  and  _199
REMARK   85  A    between atoms: _199  and  _200
REMARK   86  A    between atoms: _200  and  _201
REMARK   87  A    between atoms: _211  and  _212
REMARK   88  A    between atoms: _217  and  _219
REMARK   89  A    between atoms: _219  and  _220
REMARK   90  A    between atoms: _219  and  _222
REMARK   91  A    between atoms: _222  and  _223
REMARK   92  A    between atoms: _223  and  _224
REMARK   93  A    between atoms: _224  and  _225
REMARK   94  A    between atoms: _234  and  _236
REMARK   95  A    between atoms: _236  and  _237
REMARK   96  A    between atoms: _236  and  _239
REMARK   97  A    between atoms: _242  and  _244
REMARK   98  A    between atoms: _244  and  _245
REMARK   99  A    between atoms: _244  and  _247
REMARK  100  A    between atoms: _250  and  _252
REMARK  101  A    between atoms: _252  and  _253
REMARK  102  A    between atoms: _252  and  _255
REMARK  103  A    between atoms: _255  and  _256
REMARK  104  A    between atoms: _256  and  _257
REMARK  105  A    between atoms: _259  and  _261
REMARK  106  A    between atoms: _261  and  _262
REMARK  107  A    between atoms: _265  and  _267
REMARK  108  A    between atoms: _267  and  _268
REMARK  109  A    between atoms: _267  and  _270
REMARK  110  A    between atoms: _270  and  _271
REMARK  111  A    between atoms: _273  and  _275
REMARK  112  A    between atoms: _275  and  _276
REMARK  113  A    between atoms: _279  and  _281
REMARK  114  A    between atoms: _281  and  _282
REMARK  115  A    between atoms: _281  and  _284
REMARK  116  A    between atoms: _284  and  _285
REMARK  117  A    between atoms: _285  and  _286
REMARK  118  A    between atoms: _291  and  _293
REMARK  119  A    between atoms: _293  and  _294
REMARK  120  A    between atoms: _293  and  _296
REMARK  121  A    between atoms: _299  and  _301
REMARK  122  A    between atoms: _301  and  _302
REMARK  123  A    between atoms: _301  and  _304
REMARK  124  A    between atoms: _304  and  _305
REMARK  125  A    between atoms: _305  and  _306
REMARK  126  A    between atoms: _306  and  _307
REMARK  127  A    between atoms: _307  and  _308
REMARK  128  A    between atoms: _312  and  _314
REMARK  129  A    between atoms: _314  and  _315
REMARK  130  A    between atoms: _314  and  _317
REMARK  131  A    between atoms: _317  and  _318
REMARK  132  A    between atoms: _320  and  _322
REMARK  133  A    between atoms: _322  and  _323
REMARK  134  A    between atoms: _326  and  _328
REMARK  135  A    between atoms: _328  and  _329
REMARK  136  A    between atoms: _328  and  _331
REMARK  137  A    between atoms: _331  and  _332
REMARK  138  A    between atoms: _335  and  _337
REMARK  139  A    between atoms: _337  and  _338
REMARK  140  A    between atoms: _337  and  _340
REMARK  141  A    between atoms: _340  and  _341
REMARK  142  A    between atoms: _341  and  _342
REMARK  143  A    between atoms: _342  and  _343
REMARK  144  A    between atoms: _352  and  _354
REMARK  145  A    between atoms: _354  and  _355
REMARK  146  A    between atoms: _354  and  _357
REMARK  147  A    between atoms: _357  and  _358
REMARK  148  A    between atoms: _361  and  _363
REMARK  149  A    between atoms: _363  and  _364
REMARK  150  A    between atoms: _363  and  _366
REMARK  151  A    between atoms: _366  and  _367
REMARK  152  A    between atoms: _372  and  _374
REMARK  153  A    between atoms: _374  and  _375
REMARK  154  A    between atoms: _374  and  _377
REMARK  155  A    between atoms: _377  and  _378
REMARK  156  A    between atoms: _381  and  _383
REMARK  157  A    between atoms: _383  and  _384
REMARK  158  A    between atoms: _383  and  _386
REMARK  159  A    between atoms: _386  and  _387
REMARK  160  A    between atoms: _390  and  _392
REMARK  161  A    between atoms: _392  and  _393
REMARK  162  A    between atoms: _392  and  _395
REMARK  163  A    between atoms: _395  and  _396
REMARK  164  A    between atoms: _398  and  _400
REMARK  165  A    between atoms: _400  and  _401
REMARK  166  A    between atoms: _400  and  _403
REMARK  167  A    between atoms: _403  and  _404
REMARK  168  A    between atoms: _404  and  _405
REMARK  169  A    between atoms: _405  and  _406
REMARK  170  A    between atoms: _415  and  _417
REMARK  171  A    between atoms: _417  and  _418
REMARK  172  A    between atoms: _422  and  _423
REMARK  173  A    between atoms: _428  and  _430
REMARK  174  A    between atoms: _430  and  _431
REMARK  175  A    between atoms: _430  and  _433
REMARK  176  A    between atoms: _433  and  _434
REMARK  177  A    between atoms: _434  and  _435
REMARK  178  A    between atoms: _437  and  _439
REMARK  179  A    between atoms: _439  and  _440
REMARK  180  A    between atoms: _439  and  _442
REMARK  181  A    between atoms: _442  and  _443
REMARK  182  A    between atoms: _446  and  _448
REMARK  183  A    between atoms: _448  and  _449
REMARK  184  A    between atoms: _448  and  _451
REMARK  185  A    between atoms: _451  and  _452
REMARK  186  A    between atoms: _455  and  _457
REMARK  187  A    between atoms: _457  and  _458
REMARK  188  A    between atoms: _457  and  _460
REMARK  189  A    between atoms: _460  and  _461
REMARK  190  A    between atoms: _461  and  _462
REMARK  191  A    between atoms: _465  and  _467
REMARK  192  A    between atoms: _467  and  _468
REMARK  193  A    between atoms: _467  and  _470
REMARK  194  A    between atoms: _470  and  _471
REMARK  195  A    between atoms: _471  and  _472
REMARK  196  A    between atoms: _475  and  _477
REMARK  197  A    between atoms: _477  and  _478
REMARK  198  A    between atoms: _477  and  _480
REMARK  199  A    between atoms: _480  and  _481
REMARK  200  A    between atoms: _484  and  _486
REMARK  201  A    between atoms: _486  and  _487
REMARK  202  A    between atoms: _486  and  _489
REMARK  203  A    between atoms: _492  and  _494
REMARK  204  A    between atoms: _494  and  _495
REMARK  205  A    between atoms: _494  and  _497
REMARK  206  A    between atoms: _497  and  _498
REMARK  207  A    between atoms: _498  and  _499
REMARK  208  A    between atoms: _499  and  _500
REMARK  209  A    between atoms: _500  and  _501
REMARK  210  A    between atoms: _505  and  _507
REMARK  211  A    between atoms: _507  and  _508
REMARK  212  A    between atoms: _507  and  _510
REMARK  213  A    between atoms: _510  and  _511
REMARK  214  A    between atoms: _511  and  _512
REMARK  215  A    between atoms: _515  and  _517
REMARK  216  A    between atoms: _517  and  _518
REMARK  217  A    between atoms: _517  and  _520
REMARK  218  A    between atoms: _520  and  _521
REMARK  219  A    between atoms: _523  and  _525
REMARK  220  A    between atoms: _525  and  _526
REMARK  221  A    between atoms: _525  and  _528
REMARK  222  A    between atoms: _528  and  _529
REMARK  223  A    between atoms: _529  and  _530
REMARK  224  A    between atoms: _530  and  _531
REMARK  225  A    between atoms: _540  and  _542
REMARK  226  A    between atoms: _542  and  _543
REMARK  227  A    between atoms: _542  and  _545
REMARK  228  A    between atoms: _545  and  _546
REMARK  229  A    between atoms: _549  and  _551
REMARK  230  A    between atoms: _551  and  _552
REMARK  231  A    between atoms: _551  and  _554
REMARK  232  A    between atoms: _554  and  _555
REMARK  233  A    between atoms: _560  and  _562
REMARK  234  A    between atoms: _562  and  _563
REMARK  235  A    between atoms: _562  and  _565
REMARK  236  A    between atoms: _565  and  _566
REMARK  237  A    between atoms: _566  and  _567
REMARK  238  A    between atoms: _567  and  _568
REMARK  239  A    between atoms: _577  and  _579
REMARK  240  A    between atoms: _579  and  _580
REMARK  241  A    between atoms: _579  and  _582
REMARK  242  A    between atoms: _582  and  _583
REMARK  243  A    between atoms: _586  and  _588
REMARK  244  A    between atoms: _588  and  _589
REMARK  245  A    between atoms: _588  and  _591
REMARK  246  A    between atoms: _591  and  _592
REMARK  247  A    between atoms: _595  and  _597
REMARK  248  A    between atoms: _597  and  _598
REMARK  249  A    between atoms: _597  and  _600
REMARK  250  A    between atoms: _600  and  _601
REMARK                            x       y       z     vdW  Elec       q    Type
REMARK                         _______ _______ _______ _____ _____    ______ ____
ROOT
ATOM      1  CA  ARG A   1    -121.730  24.113 118.283  0.00  0.00    +0.145 C 
ENDROOT
BRANCH   1   2
ATOM      2  C   ARG A   1    -120.713  24.238 119.429  0.00  0.00    +0.238 C 
ATOM      3  N   VAL A   2    -120.882  23.445 120.492  0.00  0.00    -0.298 N 
ATOM      4  H   VAL A   2    -121.711  22.819 120.539  0.00  0.00    +0.150 HD
ATOM      5  O   ARG A   1    -119.785  25.055 119.345  0.00  0.00    -0.274 OA
BRANCH   3   6
ATOM      6  CA  VAL A   2    -119.916  23.447 121.590  0.00  0.00    +0.137 C 
BRANCH   6   7
ATOM      7  CB  VAL A   2    -120.651  23.398 122.958  0.00  0.00    +0.026 C 
ATOM      8  CG2 VAL A   2    -119.762  22.816 124.022  0.00  0.00    +0.002 C 
ATOM      9  CG1 VAL A   2    -121.072  24.804 123.356  0.00  0.00    +0.002 C 
ENDBRANCH   6   7
BRANCH   6  10
ATOM     10  C   VAL A   2    -118.981  22.240 121.458  0.00  0.00    +0.227 C 
ATOM     11  O   VAL A   2    -117.790  22.325 121.777  0.00  0.00    -0.286 OA
ENDBRANCH   6  10
ENDBRANCH   3   6
ENDBRANCH   1   2
BRANCH   1  12
ATOM     12  N   ARG A   1    -122.338  22.779 118.196  0.00  0.00    -0.238 NA
ATOM     13  H   ARG A   1    -123.370  22.687 118.284  0.00  0.00    +0.142 HD
ENDBRANCH   1  12
BRANCH   1  14
ATOM     14  CB  ARG A   1    -122.831  25.174 118.413  0.00  0.00    +0.030 C 
BRANCH  14  15
ATOM     15  CG  ARG A   1    -123.823  24.826 119.511  0.00  0.00    +0.045 C 
BRANCH  15  16
ATOM     16  CD  ARG A   1    -124.990  25.764 119.559  0.00  0.00    +0.174 C 
BRANCH  16  17
ATOM     17  NE  ARG A   1    -125.715  25.840 118.294  0.00  0.00    -0.265 N 
ATOM     18  CZ  ARG A   1    -126.537  26.839 118.004  0.00  0.00    +0.342 C 
ATOM     19  NH2 ARG A   1    -126.719  27.814 118.895  0.00  0.00    -0.292 N 
ATOM     20 HH21 ARG A   1    -126.219  27.786 119.806  0.00  0.00    +0.255 HD
ATOM     21 HH22 ARG A   1    -127.361  28.603 118.679  0.00  0.00    +0.255 HD
ATOM     22  NH1 ARG A   1    -127.152  26.893 116.829  0.00  0.00    -0.292 N 
ATOM     23 HH11 ARG A   1    -127.794  27.682 116.614  0.00  0.00    +0.255 HD
ATOM     24 HH12 ARG A   1    -126.992  26.146 116.123  0.00  0.00    +0.255 HD
ATOM     25  HE  ARG A   1    -125.582  25.082 117.594  0.00  0.00    +0.259 HD
ENDBRANCH  16  17
ENDBRANCH  15  16
ENDBRANCH  14  15
ENDBRANCH   1  14
TORSDOF 9
REMARK  Name = ../refined-set-2016/2pqb/2pqb_pocket.pdb
REMARK  250 active torsions:
REMARK  status: ('A' for Active; 'I' for Inactive)
REMARK    1  A    between atoms: _1  and  _3
REMARK    2  A    between atoms: _3  and  _4
REMARK    3  A    between atoms: _3  and  _6
REMARK    4  A    between atoms: _6  and  _7
REMARK    5  A    between atoms: _10  and  _12
REMARK    6  A    between atoms: _12  and  _13
REMARK    7  A    between atoms: _12  and  _15
REMARK    8  A    between atoms: _15  and  _16
REMARK    9  A    between atoms: _16  and  _17
REMARK   10  A    between atoms: _17  and  _18
REMARK   11  A    between atoms: _18  and  _19
REMARK   12  A    between atoms: _23  and  _25
REMARK   13  A    between atoms: _25  and  _26
REMARK   14  A    between atoms: _25  and  _28
REMARK   15  A    between atoms: _28  and  _29
REMARK   16  A    between atoms: _31  and  _33
REMARK   17  A    between atoms: _33  and  _34
REMARK   18  A    between atoms: _33  and  _36
REMARK   19  A    between atoms: _36  and  _37
REMARK   20  A    between atoms: _40  and  _42
REMARK   21  A    between atoms: _42  and  _43
REMARK   22  A    between atoms: _42  and  _45
REMARK   23  A    between atoms: _45  and  _46
REMARK   24  A    between atoms: _48  and  _50
REMARK   25  A    between atoms: _50  and  _51
REMARK   26  A    between atoms: _50  and  _53
REMARK   27  A    between atoms: _53  and  _54
REMARK   28  A    between atoms: _59  and  _61
REMARK   29  A    between atoms: _61  and  _62
REMARK   30  A    between atoms: _61  and  _64
REMARK   31  A    between atoms: _64  and  _65
REMARK   32  A    between atoms: _65  and  _66
REMARK   33  A    between atoms: _66  and  _67
REMARK   34  A    between atoms: _76  and  _78
REMARK   35  A    between atoms: _78  and  _79
REMARK   36  A    between atoms: _78  and  _81
REMARK   37  A    between atoms: _81  and  _82
REMARK   38  A    between atoms: _85  and  _87
REMARK   39  A    between atoms: _87  and  _88
REMARK   40  A    between atoms: _87  and  _90
REMARK   41  A    between atoms: _90  and  _91
REMARK   42  A    between atoms: _94  and  _96
REMARK   43  A    between atoms: _96  and  _97
REMARK   44  A    between atoms: _96  and  _99
REMARK   45  A    between atoms: _99  and  _100
REMARK   46  A    between atoms: _106  and  _108
REMARK   47  A    between atoms: _108  and  _109
REMARK   48  A    between atoms: _108  and  _111
REMARK   49  A    between atoms: _111  and  _112
REMARK   50  A    between atoms: _117  and  _119
REMARK   51  A    between atoms: _119  and  _120
REMARK   52  A    between atoms: _123  and  _125
REMARK   53  A    between atoms: _125  and  _126
REMARK   54  A    between atoms: _129  and  _131
REMARK   55  A    between atoms: _131  and  _132
REMARK   56  A    between atoms: _131  and  _134
REMARK   57  A    between atoms: _134  and  _135
REMARK   58  A    between atoms: _138  and  _140
REMARK   59  A    between atoms: _140  and  _141
REMARK   60  A    between atoms: _143  and  _145
REMARK   61  A    between atoms: _145  and  _146
REMARK   62  A    between atoms: _145  and  _148
REMARK   63  A    between atoms: _150  and  _152
REMARK   64  A    between atoms: _152  and  _153
REMARK   65  A    between atoms: _152  and  _155
REMARK   66  A    between atoms: _155  and  _156
REMARK   67  A    between atoms: _156  and  _157
REMARK   68  A    between atoms: _157  and  _158
REMARK   69  A    between atoms: _167  and  _169
REMARK   70  A    between atoms: _169  and  _170
REMARK   71  A    between atoms: _169  and  _172
REMARK   72  A    between atoms: _172  and  _173
REMARK   73  A    between atoms: _176  and  _178
REMARK   74  A    between atoms: _178  and  _179
REMARK   75  A    between atoms: _178  and  _181
REMARK   76  A    between atoms: _181  and  _182
REMARK   77  A    between atoms: _184  and  _186
REMARK   78  A    between atoms: _186  and  _187
REMARK   79  A    between atoms: _186  and  _189
REMARK   80  A    between atoms: _189  and  _190
REMARK   81  A    between atoms: _193  and  _195
REMARK   82  A    between atoms: _195  and  _196
REMARK   83  A    between atoms: _195  and  _198
REMARK   84  A    between atoms: _198  and  _199
REMARK   85  A    between atoms: _199  and  _200
REMARK   86  A    between atoms: _200  and  _201
REMARK   87  A    between atoms: _211  and  _212
REMARK   88  A    between atoms: _217  and  _219
REMARK   89  A    between atoms: _219  and  _220
REMARK   90  A    between atoms: _219  and  _222
REMARK   91  A    between atoms: _222  and  _223
REMARK   92  A    between atoms: _223  and  _224
REMARK   93  A    between atoms: _224  and  _225
REMARK   94  A    between atoms: _234  and  _236
REMARK   95  A    between atoms: _236  and  _237
REMARK   96  A    between atoms: _236  and  _239
REMARK   97  A    between atoms: _242  and  _244
REMARK   98  A    between atoms: _244  and  _245
REMARK   99  A    between atoms: _244  and  _247
REMARK  100  A    between atoms: _250  and  _252
REMARK  101  A    between atoms: _252  and  _253
REMARK  102  A    between atoms: _252  and  _255
REMARK  103  A    between atoms: _255  and  _256
REMARK  104  A    between atoms: _256  and  _257
REMARK  105  A    between atoms: _259  and  _261
REMARK  106  A    between atoms: _261  and  _262
REMARK  107  A    between atoms: _265  and  _267
REMARK  108  A    between atoms: _267  and  _268
REMARK  109  A    between atoms: _267  and  _270
REMARK  110  A    between atoms: _270  and  _271
REMARK  111  A    between atoms: _273  and  _275
REMARK  112  A    between atoms: _275  and  _276
REMARK  113  A    between atoms: _279  and  _281
REMARK  114  A    between atoms: _281  and  _282
REMARK  115  A    between atoms: _281  and  _284
REMARK  116  A    between atoms: _284  and  _285
REMARK  117  A    between atoms: _285  and  _286
REMARK  118  A    between atoms: _291  and  _293
REMARK  119  A    between atoms: _293  and  _294
REMARK  120  A    between atoms: _293  and  _296
REMARK  121  A    between atoms: _299  and  _301
REMARK  122  A    between atoms: _301  and  _302
REMARK  123  A    between atoms: _301  and  _304
REMARK  124  A    between atoms: _304  and  _305
REMARK  125  A    between atoms: _305  and  _306
REMARK  126  A    between atoms: _306  and  _307
REMARK  127  A    between atoms: _307  and  _308
REMARK  128  A    between atoms: _312  and  _314
REMARK  129  A    between atoms: _314  and  _315
REMARK  130  A    between atoms: _314  and  _317
REMARK  131  A    between atoms: _317  and  _318
REMARK  132  A    between atoms: _320  and  _322
REMARK  133  A    between atoms: _322  and  _323
REMARK  134  A    between atoms: _326  and  _328
REMARK  135  A    between atoms: _328  and  _329
REMARK  136  A    between atoms: _328  and  _331
REMARK  137  A    between atoms: _331  and  _332
REMARK  138  A    between atoms: _335  and  _337
REMARK  139  A    between atoms: _337  and  _338
REMARK  140  A    between atoms: _337  and  _340
REMARK  141  A    between atoms: _340  and  _341
REMARK  142  A    between atoms: _341  and  _342
REMARK  143  A    between atoms: _342  and  _343
REMARK  144  A    between atoms: _352  and  _354
REMARK  145  A    between atoms: _354  and  _355
REMARK  146  A    between atoms: _354  and  _357
REMARK  147  A    between atoms: _357  and  _358
REMARK  148  A    between atoms: _361  and  _363
REMARK  149  A    between atoms: _363  and  _364
REMARK  150  A    between atoms: _363  and  _366
REMARK  151  A    between atoms: _366  and  _367
REMARK  152  A    between atoms: _372  and  _374
REMARK  153  A    between atoms: _374  and  _375
REMARK  154  A    between atoms: _374  and  _377
REMARK  155  A    between atoms: _377  and  _378
REMARK  156  A    between atoms: _381  and  _383
REMARK  157  A    between atoms: _383  and  _384
REMARK  158  A    between atoms: _383  and  _386
REMARK  159  A    between atoms: _386  and  _387
REMARK  160  A    between atoms: _390  and  _392
REMARK  161  A    between atoms: _392  and  _393
REMARK  162  A    between atoms: _392  and  _395
REMARK  163  A    between atoms: _395  and  _396
REMARK  164  A    between atoms: _398  and  _400
REMARK  165  A    between atoms: _400  and  _401
REMARK  166  A    between atoms: _400  and  _403
REMARK  167  A    between atoms: _403  and  _404
REMARK  168  A    between atoms: _404  and  _405
REMARK  169  A    between atoms: _405  and  _406
REMARK  170  A    between atoms: _415  and  _417
REMARK  171  A    between atoms: _417  and  _418
REMARK  172  A    between atoms: _422  and  _423
REMARK  173  A    between atoms: _428  and  _430
REMARK  174  A    between atoms: _430  and  _431
REMARK  175  A    between atoms: _430  and  _433
REMARK  176  A    between atoms: _433  and  _434
REMARK  177  A    between atoms: _434  and  _435
REMARK  178  A    between atoms: _437  and  _439
REMARK  179  A    between atoms: _439  and  _440
REMARK  180  A    between atoms: _439  and  _442
REMARK  181  A    between atoms: _442  and  _443
REMARK  182  A    between atoms: _446  and  _448
REMARK  183  A    between atoms: _448  and  _449
REMARK  184  A    between atoms: _448  and  _451
REMARK  185  A    between atoms: _451  and  _452
REMARK  186  A    between atoms: _455  and  _457
REMARK  187  A    between atoms: _457  and  _458
REMARK  188  A    between atoms: _457  and  _460
REMARK  189  A    between atoms: _460  and  _461
REMARK  190  A    between atoms: _461  and  _462
REMARK  191  A    between atoms: _465  and  _467
REMARK  192  A    between atoms: _467  and  _468
REMARK  193  A    between atoms: _467  and  _470
REMARK  194  A    between atoms: _470  and  _471
REMARK  195  A    between atoms: _471  and  _472
REMARK  196  A    between atoms: _475  and  _477
REMARK  197  A    between atoms: _477  and  _478
REMARK  198  A    between atoms: _477  and  _480
REMARK  199  A    between atoms: _480  and  _481
REMARK  200  A    between atoms: _484  and  _486
REMARK  201  A    between atoms: _486  and  _487
REMARK  202  A    between atoms: _486  and  _489
REMARK  203  A    between atoms: _492  and  _494
REMARK  204  A    between atoms: _494  and  _495
REMARK  205  A    between atoms: _494  and  _497
REMARK  206  A    between atoms: _497  and  _498
REMARK  207  A    between atoms: _498  and  _499
REMARK  208  A    between atoms: _499  and  _500
REMARK  209  A    between atoms: _500  and  _501
REMARK  210  A    between atoms: _505  and  _507
REMARK  211  A    between atoms: _507  and  _508
REMARK  212  A    between atoms: _507  and  _510
REMARK  213  A    between atoms: _510  and  _511
REMARK  214  A    between atoms: _511  and  _512
REMARK  215  A    between atoms: _515  and  _517
REMARK  216  A    between atoms: _517  and  _518
REMARK  217  A    between atoms: _517  and  _520
REMARK  218  A    between atoms: _520  and  _521
REMARK  219  A    between atoms: _523  and  _525
REMARK  220  A    between atoms: _525  and  _526
REMARK  221  A    between atoms: _525  and  _528
REMARK  222  A    between atoms: _528  and  _529
REMARK  223  A    between atoms: _529  and  _530
REMARK  224  A    between atoms: _530  and  _531
REMARK  225  A    between atoms: _540  and  _542
REMARK  226  A    between atoms: _542  and  _543
REMARK  227  A    between atoms: _542  and  _545
REMARK  228  A    between atoms: _545  and  _546
REMARK  229  A    between atoms: _549  and  _551
REMARK  230  A    between atoms: _551  and  _552
REMARK  231  A    between atoms: _551  and  _554
REMARK  232  A    between atoms: _554  and  _555
REMARK  233  A    between atoms: _560  and  _562
REMARK  234  A    between atoms: _562  and  _563
REMARK  235  A    between atoms: _562  and  _565
REMARK  236  A    between atoms: _565  and  _566
REMARK  237  A    between atoms: _566  and  _567
REMARK  238  A    between atoms: _567  and  _568
REMARK  239  A    between atoms: _577  and  _579
REMARK  240  A    between atoms: _579  and  _580
REMARK  241  A    between atoms: _579  and  _582
REMARK  242  A    between atoms: _582  and  _583
REMARK  243  A    between atoms: _586  and  _588
REMARK  244  A    between atoms: _588  and  _589
REMARK  245  A    between atoms: _588  and  _591
REMARK  246  A    between atoms: _591  and  _592
REMARK  247  A    between atoms: _595  and  _597
REMARK  248  A    between atoms: _597  and  _598
REMARK  249  A    between atoms: _597  and  _600
REMARK  250  A    between atoms: _600  and  _601
REMARK                            x       y       z     vdW  Elec       q    Type
REMARK                         _______ _______ _______ _____ _____    ______ ____
ROOT
ATOM      1  CA  VAL A   1    -117.918  31.720 117.139  0.00  0.00    +0.133 C 
ENDROOT
BRANCH   1   2
ATOM      2  CB  VAL A   1    -118.606  32.253 118.410  0.00  0.00    +0.023 C 
ATOM      3  CG2 VAL A   1    -117.601  32.201 119.573  0.00  0.00    +0.002 C 
ATOM      4  CG1 VAL A   1    -119.855  31.416 118.748  0.00  0.00    +0.002 C 
ENDBRANCH   1   2
BRANCH   1   5
ATOM      5  N   VAL A   1    -116.571  32.305 116.999  0.00  0.00    -0.239 NA
ATOM      6  H   VAL A   1    -116.297  33.110 117.598  0.00  0.00    +0.142 HD
ENDBRANCH   1   5
BRANCH   1   7
ATOM      7  C   VAL A   1    -118.735  32.055 115.901  0.00  0.00    +0.224 C 
ATOM      8  O   VAL A   1    -118.921  33.239 115.580  0.00  0.00    -0.287 OA
ENDBRANCH   1   7
TORSDOF 3
REMARK  Name = ../refined-set-2016/2pqb/2pqb_pocket.pdb
REMARK  250 active torsions:
REMARK  status: ('A' for Active; 'I' for Inactive)
REMARK    1  A    between atoms: _1  and  _3
REMARK    2  A    between atoms: _3  and  _4
REMARK    3  A    between atoms: _3  and  _6
REMARK    4  A    between atoms: _6  and  _7
REMARK    5  A    between atoms: _10  and  _12
REMARK    6  A    between atoms: _12  and  _13
REMARK    7  A    between atoms: _12  and  _15
REMARK    8  A    between atoms: _15  and  _16
REMARK    9  A    between atoms: _16  and  _17
REMARK   10  A    between atoms: _17  and  _18
REMARK   11  A    between atoms: _18  and  _19
REMARK   12  A    between atoms: _23  and  _25
REMARK   13  A    between atoms: _25  and  _26
REMARK   14  A    between atoms: _25  and  _28
REMARK   15  A    between atoms: _28  and  _29
REMARK   16  A    between atoms: _31  and  _33
REMARK   17  A    between atoms: _33  and  _34
REMARK   18  A    between atoms: _33  and  _36
REMARK   19  A    between atoms: _36  and  _37
REMARK   20  A    between atoms: _40  and  _42
REMARK   21  A    between atoms: _42  and  _43
REMARK   22  A    between atoms: _42  and  _45
REMARK   23  A    between atoms: _45  and  _46
REMARK   24  A    between atoms: _48  and  _50
REMARK   25  A    between atoms: _50  and  _51
REMARK   26  A    between atoms: _50  and  _53
REMARK   27  A    between atoms: _53  and  _54
REMARK   28  A    between atoms: _59  and  _61
REMARK   29  A    between atoms: _61  and  _62
REMARK   30  A    between atoms: _61  and  _64
REMARK   31  A    between atoms: _64  and  _65
REMARK   32  A    between atoms: _65  and  _66
REMARK   33  A    between atoms: _66  and  _67
REMARK   34  A    between atoms: _76  and  _78
REMARK   35  A    between atoms: _78  and  _79
REMARK   36  A    between atoms: _78  and  _81
REMARK   37  A    between atoms: _81  and  _82
REMARK   38  A    between atoms: _85  and  _87
REMARK   39  A    between atoms: _87  and  _88
REMARK   40  A    between atoms: _87  and  _90
REMARK   41  A    between atoms: _90  and  _91
REMARK   42  A    between atoms: _94  and  _96
REMARK   43  A    between atoms: _96  and  _97
REMARK   44  A    between atoms: _96  and  _99
REMARK   45  A    between atoms: _99  and  _100
REMARK   46  A    between atoms: _106  and  _108
REMARK   47  A    between atoms: _108  and  _109
REMARK   48  A    between atoms: _108  and  _111
REMARK   49  A    between atoms: _111  and  _112
REMARK   50  A    between atoms: _117  and  _119
REMARK   51  A    between atoms: _119  and  _120
REMARK   52  A    between atoms: _123  and  _125
REMARK   53  A    between atoms: _125  and  _126
REMARK   54  A    between atoms: _129  and  _131
REMARK   55  A    between atoms: _131  and  _132
REMARK   56  A    between atoms: _131  and  _134
REMARK   57  A    between atoms: _134  and  _135
REMARK   58  A    between atoms: _138  and  _140
REMARK   59  A    between atoms: _140  and  _141
REMARK   60  A    between atoms: _143  and  _145
REMARK   61  A    between atoms: _145  and  _146
REMARK   62  A    between atoms: _145  and  _148
REMARK   63  A    between atoms: _150  and  _152
REMARK   64  A    between atoms: _152  and  _153
REMARK   65  A    between atoms: _152  and  _155
REMARK   66  A    between atoms: _155  and  _156
REMARK   67  A    between atoms: _156  and  _157
REMARK   68  A    between atoms: _157  and  _158
REMARK   69  A    between atoms: _167  and  _169
REMARK   70  A    between atoms: _169  and  _170
REMARK   71  A    between atoms: _169  and  _172
REMARK   72  A    between atoms: _172  and  _173
REMARK   73  A    between atoms: _176  and  _178
REMARK   74  A    between atoms: _178  and  _179
REMARK   75  A    between atoms: _178  and  _181
REMARK   76  A    between atoms: _181  and  _182
REMARK   77  A    between atoms: _184  and  _186
REMARK   78  A    between atoms: _186  and  _187
REMARK   79  A    between atoms: _186  and  _189
REMARK   80  A    between atoms: _189  and  _190
REMARK   81  A    between atoms: _193  and  _195
REMARK   82  A    between atoms: _195  and  _196
REMARK   83  A    between atoms: _195  and  _198
REMARK   84  A    between atoms: _198  and  _199
REMARK   85  A    between atoms: _199  and  _200
REMARK   86  A    between atoms: _200  and  _201
REMARK   87  A    between atoms: _211  and  _212
REMARK   88  A    between atoms: _217  and  _219
REMARK   89  A    between atoms: _219  and  _220
REMARK   90  A    between atoms: _219  and  _222
REMARK   91  A    between atoms: _222  and  _223
REMARK   92  A    between atoms: _223  and  _224
REMARK   93  A    between atoms: _224  and  _225
REMARK   94  A    between atoms: _234  and  _236
REMARK   95  A    between atoms: _236  and  _237
REMARK   96  A    between atoms: _236  and  _239
REMARK   97  A    between atoms: _242  and  _244
REMARK   98  A    between atoms: _244  and  _245
REMARK   99  A    between atoms: _244  and  _247
REMARK  100  A    between atoms: _250  and  _252
REMARK  101  A    between atoms: _252  and  _253
REMARK  102  A    between atoms: _252  and  _255
REMARK  103  A    between atoms: _255  and  _256
REMARK  104  A    between atoms: _256  and  _257
REMARK  105  A    between atoms: _259  and  _261
REMARK  106  A    between atoms: _261  and  _262
REMARK  107  A    between atoms: _265  and  _267
REMARK  108  A    between atoms: _267  and  _268
REMARK  109  A    between atoms: _267  and  _270
REMARK  110  A    between atoms: _270  and  _271
REMARK  111  A    between atoms: _273  and  _275
REMARK  112  A    between atoms: _275  and  _276
REMARK  113  A    between atoms: _279  and  _281
REMARK  114  A    between atoms: _281  and  _282
REMARK  115  A    between atoms: _281  and  _284
REMARK  116  A    between atoms: _284  and  _285
REMARK  117  A    between atoms: _285  and  _286
REMARK  118  A    between atoms: _291  and  _293
REMARK  119  A    between atoms: _293  and  _294
REMARK  120  A    between atoms: _293  and  _296
REMARK  121  A    between atoms: _299  and  _301
REMARK  122  A    between atoms: _301  and  _302
REMARK  123  A    between atoms: _301  and  _304
REMARK  124  A    between atoms: _304  and  _305
REMARK  125  A    between atoms: _305  and  _306
REMARK  126  A    between atoms: _306  and  _307
REMARK  127  A    between atoms: _307  and  _308
REMARK  128  A    between atoms: _312  and  _314
REMARK  129  A    between atoms: _314  and  _315
REMARK  130  A    between atoms: _314  and  _317
REMARK  131  A    between atoms: _317  and  _318
REMARK  132  A    between atoms: _320  and  _322
REMARK  133  A    between atoms: _322  and  _323
REMARK  134  A    between atoms: _326  and  _328
REMARK  135  A    between atoms: _328  and  _329
REMARK  136  A    between atoms: _328  and  _331
REMARK  137  A    between atoms: _331  and  _332
REMARK  138  A    between atoms: _335  and  _337
REMARK  139  A    between atoms: _337  and  _338
REMARK  140  A    between atoms: _337  and  _340
REMARK  141  A    between atoms: _340  and  _341
REMARK  142  A    between atoms: _341  and  _342
REMARK  143  A    between atoms: _342  and  _343
REMARK  144  A    between atoms: _352  and  _354
REMARK  145  A    between atoms: _354  and  _355
REMARK  146  A    between atoms: _354  and  _357
REMARK  147  A    between atoms: _357  and  _358
REMARK  148  A    between atoms: _361  and  _363
REMARK  149  A    between atoms: _363  and  _364
REMARK  150  A    between atoms: _363  and  _366
REMARK  151  A    between atoms: _366  and  _367
REMARK  152  A    between atoms: _372  and  _374
REMARK  153  A    between atoms: _374  and  _375
REMARK  154  A    between atoms: _374  and  _377
REMARK  155  A    between atoms: _377  and  _378
REMARK  156  A    between atoms: _381  and  _383
REMARK  157  A    between atoms: _383  and  _384
REMARK  158  A    between atoms: _383  and  _386
REMARK  159  A    between atoms: _386  and  _387
REMARK  160  A    between atoms: _390  and  _392
REMARK  161  A    between atoms: _392  and  _393
REMARK  162  A    between atoms: _392  and  _395
REMARK  163  A    between atoms: _395  and  _396
REMARK  164  A    between atoms: _398  and  _400
REMARK  165  A    between atoms: _400  and  _401
REMARK  166  A    between atoms: _400  and  _403
REMARK  167  A    between atoms: _403  and  _404
REMARK  168  A    between atoms: _404  and  _405
REMARK  169  A    between atoms: _405  and  _406
REMARK  170  A    between atoms: _415  and  _417
REMARK  171  A    between atoms: _417  and  _418
REMARK  172  A    between atoms: _422  and  _423
REMARK  173  A    between atoms: _428  and  _430
REMARK  174  A    between atoms: _430  and  _431
REMARK  175  A    between atoms: _430  and  _433
REMARK  176  A    between atoms: _433  and  _434
REMARK  177  A    between atoms: _434  and  _435
REMARK  178  A    between atoms: _437  and  _439
REMARK  179  A    between atoms: _439  and  _440
REMARK  180  A    between atoms: _439  and  _442
REMARK  181  A    between atoms: _442  and  _443
REMARK  182  A    between atoms: _446  and  _448
REMARK  183  A    between atoms: _448  and  _449
REMARK  184  A    between atoms: _448  and  _451
REMARK  185  A    between atoms: _451  and  _452
REMARK  186  A    between atoms: _455  and  _457
REMARK  187  A    between atoms: _457  and  _458
REMARK  188  A    between atoms: _457  and  _460
REMARK  189  A    between atoms: _460  and  _461
REMARK  190  A    between atoms: _461  and  _462
REMARK  191  A    between atoms: _465  and  _467
REMARK  192  A    between atoms: _467  and  _468
REMARK  193  A    between atoms: _467  and  _470
REMARK  194  A    between atoms: _470  and  _471
REMARK  195  A    between atoms: _471  and  _472
REMARK  196  A    between atoms: _475  and  _477
REMARK  197  A    between atoms: _477  and  _478
REMARK  198  A    between atoms: _477  and  _480
REMARK  199  A    between atoms: _480  and  _481
REMARK  200  A    between atoms: _484  and  _486
REMARK  201  A    between atoms: _486  and  _487
REMARK  202  A    between atoms: _486  and  _489
REMARK  203  A    between atoms: _492  and  _494
REMARK  204  A    between atoms: _494  and  _495
REMARK  205  A    between atoms: _494  and  _497
REMARK  206  A    between atoms: _497  and  _498
REMARK  207  A    between atoms: _498  and  _499
REMARK  208  A    between atoms: _499  and  _500
REMARK  209  A    between atoms: _500  and  _501
REMARK  210  A    between atoms: _505  and  _507
REMARK  211  A    between atoms: _507  and  _508
REMARK  212  A    between atoms: _507  and  _510
REMARK  213  A    between atoms: _510  and  _511
REMARK  214  A    between atoms: _511  and  _512
REMARK  215  A    between atoms: _515  and  _517
REMARK  216  A    between atoms: _517  and  _518
REMARK  217  A    between atoms: _517  and  _520
REMARK  218  A    between atoms: _520  and  _521
REMARK  219  A    between atoms: _523  and  _525
REMARK  220  A    between atoms: _525  and  _526
REMARK  221  A    between atoms: _525  and  _528
REMARK  222  A    between atoms: _528  and  _529
REMARK  223  A    between atoms: _529  and  _530
REMARK  224  A    between atoms: _530  and  _531
REMARK  225  A    between atoms: _540  and  _542
REMARK  226  A    between atoms: _542  and  _543
REMARK  227  A    between atoms: _542  and  _545
REMARK  228  A    between atoms: _545  and  _546
REMARK  229  A    between atoms: _549  and  _551
REMARK  230  A    between atoms: _551  and  _552
REMARK  231  A    between atoms: _551  and  _554
REMARK  232  A    between atoms: _554  and  _555
REMARK  233  A    between atoms: _560  and  _562
REMARK  234  A    between atoms: _562  and  _563
REMARK  235  A    between atoms: _562  and  _565
REMARK  236  A    between atoms: _565  and  _566
REMARK  237  A    between atoms: _566  and  _567
REMARK  238  A    between atoms: _567  and  _568
REMARK  239  A    between atoms: _577  and  _579
REMARK  240  A    between atoms: _579  and  _580
REMARK  241  A    between atoms: _579  and  _582
REMARK  242  A    between atoms: _582  and  _583
REMARK  243  A    between atoms: _586  and  _588
REMARK  244  A    between atoms: _588  and  _589
REMARK  245  A    between atoms: _588  and  _591
REMARK  246  A    between atoms: _591  and  _592
REMARK  247  A    between atoms: _595  and  _597
REMARK  248  A    between atoms: _597  and  _598
REMARK  249  A    between atoms: _597  and  _600
REMARK  250  A    between atoms: _600  and  _601
REMARK                            x       y       z     vdW  Elec       q    Type
REMARK                         _______ _______ _______ _____ _____    ______ ____
ROOT
ATOM      1  CA  GLN A   5    -123.134  29.732 125.465  0.00  0.00    +0.149 C 
ENDROOT
BRANCH   1   4
ATOM      2  C   ALA A   4    -122.653  32.086 125.090  0.00  0.00    +0.241 C 
ATOM      3  O   ALA A   4    -121.612  31.983 125.749  0.00  0.00    -0.273 OA
ATOM      4  N   GLN A   5    -123.467  31.049 124.887  0.00  0.00    -0.297 N 
ATOM      5  H   GLN A   5    -124.333  31.168 124.324  0.00  0.00    +0.150 HD
BRANCH   2   6
ATOM      6  CA  ALA A   4    -123.042  33.430 124.461  0.00  0.00    +0.149 C 
ATOM      7  CB  ALA A   4    -123.857  34.246 125.453  0.00  0.00    +0.031 C 
BRANCH   6   9
ATOM      8  C   SER A   3    -123.230  32.739 122.133  0.00  0.00    +0.243 C 
ATOM      9  N   ALA A   4    -123.817  33.171 123.247  0.00  0.00    -0.297 N 
ATOM     10  H   ALA A   4    -124.845  33.327 123.255  0.00  0.00    +0.150 HD
ATOM     11  O   SER A   3    -122.001  32.572 122.025  0.00  0.00    -0.273 OA
BRANCH   8  12
ATOM     12  CA  SER A   3    -124.158  32.429 120.964  0.00  0.00    +0.178 C 
BRANCH  12  15
ATOM     13  C   ALA A   2    -124.714  34.150 119.331  0.00  0.00    +0.241 C 
ATOM     14  O   ALA A   2    -125.755  34.461 119.920  0.00  0.00    -0.273 OA
ATOM     15  N   SER A   3    -123.880  33.219 119.774  0.00  0.00    -0.295 N 
ATOM     16  H   SER A   3    -122.997  33.048 119.253  0.00  0.00    +0.150 HD
BRANCH  13  17
ATOM     17  CA  ALA A   2    -124.284  34.865 118.043  0.00  0.00    +0.149 C 
ATOM     18  CB  ALA A   2    -125.178  36.088 117.794  0.00  0.00    +0.031 C 
BRANCH  17  21
ATOM     19  C   MET A   1    -123.340  33.077 116.663  0.00  0.00    +0.238 C 
ATOM     20  O   MET A   1    -122.398  32.917 117.443  0.00  0.00    -0.274 OA
ATOM     21  N   ALA A   2    -124.299  33.986 116.868  0.00  0.00    -0.297 N 
ATOM     22  H   ALA A   2    -125.073  34.072 116.179  0.00  0.00    +0.150 HD
BRANCH  19  23
ATOM     23  CA  MET A   1    -123.420  32.226 115.386  0.00  0.00    +0.146 C 
BRANCH  23  24
ATOM     24  N   MET A   1    -122.084  31.653 115.195  0.00  0.00    -0.238 NA
ATOM     25  H   MET A   1    -121.616  31.187 115.999  0.00  0.00    +0.142 HD
ENDBRANCH  23  24
BRANCH  23  26
ATOM     26  CB  MET A   1    -124.491  31.113 115.507  0.00  0.00    +0.038 C 
BRANCH  26  27
ATOM     27  CG  MET A   1    -124.505  30.279 116.808  0.00  0.00    +0.060 C 
BRANCH  27  28
ATOM     28  SD  MET A   1    -123.077  29.220 117.115  0.00  0.00    -0.139 S 
ATOM     29  CE  MET A   1    -123.275  27.942 115.802  0.00  0.00    +0.069 C 
ENDBRANCH  27  28
ENDBRANCH  26  27
ENDBRANCH  23  26
ENDBRANCH  19  23
ENDBRANCH  17  21
ENDBRANCH  13  17
ENDBRANCH  12  15
BRANCH  12  30
ATOM     30  CB  SER A   3    -124.030  30.932 120.622  0.00  0.00    +0.166 C 
BRANCH  30  31
ATOM     31  OG  SER A   3    -124.116  30.122 121.788  0.00  0.00    -0.380 OA
ATOM     32  H   SER A   3    -124.991  30.270 122.227  0.00  0.00    +0.211 HD
ENDBRANCH  30  31
ENDBRANCH  12  30
ENDBRANCH   8  12
ENDBRANCH   6   9
ENDBRANCH   2   6
ENDBRANCH   1   4
BRANCH   1  33
ATOM     33  C   GLN A   5    -121.907  29.087 124.820  0.00  0.00    +0.241 C 
ATOM     34  O   GLN A   5    -121.122  28.423 125.494  0.00  0.00    -0.273 OA
ATOM     35  N   VAL A   6    -121.737  29.246 123.513  0.00  0.00    -0.297 N 
ATOM     36  H   VAL A   6    -122.439  29.767 122.950  0.00  0.00    +0.150 HD
BRANCH  35  37
ATOM     37  CA  VAL A   6    -120.560  28.683 122.882  0.00  0.00    +0.149 C 
BRANCH  37  38
ATOM     38  C   VAL A   6    -119.325  29.445 123.354  0.00  0.00    +0.241 C 
ATOM     39  O   VAL A   6    -118.308  28.838 123.697  0.00  0.00    -0.273 OA
ATOM     40  N   LYS A   7    -119.405  30.772 123.346  0.00  0.00    -0.297 N 
ATOM     41  H   LYS A   7    -120.267  31.231 122.990  0.00  0.00    +0.150 HD
BRANCH  40  42
ATOM     42  CA  LYS A   7    -118.299  31.594 123.830  0.00  0.00    +0.149 C 
BRANCH  42  43
ATOM     43  C   LYS A   7    -117.947  31.188 125.257  0.00  0.00    +0.241 C 
ATOM     44  N   SER A   8    -118.975  31.015 126.089  0.00  0.00    -0.295 N 
ATOM     45  H   SER A   8    -119.945  31.134 125.734  0.00  0.00    +0.150 HD
ATOM     46  O   LYS A   7    -116.766  31.047 125.605  0.00  0.00    -0.273 OA
BRANCH  44  47
ATOM     47  CA  SER A   8    -118.760  30.659 127.500  0.00  0.00    +0.178 C 
BRANCH  47  48
ATOM     48  C   SER A   8    -118.121  29.278 127.665  0.00  0.00    +0.243 C 
ATOM     49  O   SER A   8    -117.218  29.112 128.486  0.00  0.00    -0.273 OA
ATOM     50  N   ALA A   9    -118.577  28.293 126.886  0.00  0.00    -0.298 N 
ATOM     51  H   ALA A   9    -119.340  28.485 126.206  0.00  0.00    +0.150 HD
BRANCH  50  52
ATOM     52  CA  ALA A   9    -118.008  26.934 126.981  0.00  0.00    +0.137 C 
ATOM     53  CB  ALA A   9    -118.773  25.959 126.076  0.00  0.00    +0.030 C 
BRANCH  52  54
ATOM     54  C   ALA A   9    -116.519  26.901 126.634  0.00  0.00    +0.227 C 
ATOM     55  O   ALA A   9    -115.739  26.207 127.304  0.00  0.00    -0.286 OA
ENDBRANCH  52  54
ENDBRANCH  50  52
ENDBRANCH  47  48
BRANCH  47  56
ATOM     56  CB  SER A   8    -120.086  30.724 128.273  0.00  0.00    +0.166 C 
BRANCH  56  57
ATOM     57  OG  SER A   8    -120.653  32.040 128.206  0.00  0.00    -0.380 OA
ATOM     58  H   SER A   8    -120.823  32.277 127.260  0.00  0.00    +0.211 HD
ENDBRANCH  56  57
ENDBRANCH  47  56
ENDBRANCH  44  47
ENDBRANCH  42  43
BRANCH  42  59
ATOM     59  CB  LYS A   7    -118.693  33.085 123.848  0.00  0.00    +0.029 C 
BRANCH  59  60
ATOM     60  CG  LYS A   7    -117.777  33.951 124.765  0.00  0.00    +0.000 C 
BRANCH  60  61
ATOM     61  CD  LYS A   7    -118.147  35.442 124.724  0.00  0.00    -0.024 C 
BRANCH  61  62
ATOM     62  CE  LYS A   7    -119.633  35.688 125.105  0.00  0.00    -0.086 C 
BRANCH  62  63
ATOM     63  NZ  LYS A   7    -119.997  37.154 125.107  0.00  0.00    +0.380 N 
ATOM     64  HZ1 LYS A   7    -119.402  37.657 125.797  0.00  0.00    -0.089 HD
ATOM     65  HZ2 LYS A   7    -120.998  37.261 125.368  0.00  0.00    -0.089 HD
ATOM     66  HZ3 LYS A   7    -119.840  37.550 124.158  0.00  0.00    -0.089 HD
ENDBRANCH  62  63
ENDBRANCH  61  62
ENDBRANCH  60  61
ENDBRANCH  59  60
ENDBRANCH  42  59
ENDBRANCH  40  42
ENDBRANCH  37  38
BRANCH  37  67
ATOM     67  CB  VAL A   6    -120.638  28.728 121.350  0.00  0.00    +0.027 C 
ATOM     68  CG2 VAL A   6    -121.731  27.750 120.879  0.00  0.00    +0.002 C 
ATOM     69  CG1 VAL A   6    -119.292  28.313 120.750  0.00  0.00    +0.002 C 
ENDBRANCH  37  67
ENDBRANCH  35  37
ENDBRANCH   1  33
BRANCH   1  70
ATOM     70  CB  GLN A   5    -124.321  28.774 125.363  0.00  0.00    +0.039 C 
BRANCH  70  71
ATOM     71  CG  GLN A   5    -125.478  29.116 126.291  0.00  0.00    +0.087 C 
BRANCH  71  72
ATOM     72  CD  GLN A   5    -126.603  28.102 126.189  0.00  0.00    +0.219 C 
ATOM     73  NE2 GLN A   5    -127.831  28.551 126.383  0.00  0.00    -0.329 N 
ATOM     74 HE21 GLN A   5    -127.992  29.561 126.572  0.00  0.00    +0.145 HD
ATOM     75 HE22 GLN A   5    -128.637  27.894 126.347  0.00  0.00    +0.145 HD
ATOM     76  OE1 GLN A   5    -126.359  26.923 125.963  0.00  0.00    -0.275 OA
ENDBRANCH  71  72
ENDBRANCH  70  71
ENDBRANCH   1  70
TORSDOF 34
REMARK  Name = ../refined-set-2016/2pqb/2pqb_pocket.pdb
REMARK  250 active torsions:
REMARK  status: ('A' for Active; 'I' for Inactive)
REMARK    1  A    between atoms: _1  and  _3
REMARK    2  A    between atoms: _3  and  _4
REMARK    3  A    between atoms: _3  and  _6
REMARK    4  A    between atoms: _6  and  _7
REMARK    5  A    between atoms: _10  and  _12
REMARK    6  A    between atoms: _12  and  _13
REMARK    7  A    between atoms: _12  and  _15
REMARK    8  A    between atoms: _15  and  _16
REMARK    9  A    between atoms: _16  and  _17
REMARK   10  A    between atoms: _17  and  _18
REMARK   11  A    between atoms: _18  and  _19
REMARK   12  A    between atoms: _23  and  _25
REMARK   13  A    between atoms: _25  and  _26
REMARK   14  A    between atoms: _25  and  _28
REMARK   15  A    between atoms: _28  and  _29
REMARK   16  A    between atoms: _31  and  _33
REMARK   17  A    between atoms: _33  and  _34
REMARK   18  A    between atoms: _33  and  _36
REMARK   19  A    between atoms: _36  and  _37
REMARK   20  A    between atoms: _40  and  _42
REMARK   21  A    between atoms: _42  and  _43
REMARK   22  A    between atoms: _42  and  _45
REMARK   23  A    between atoms: _45  and  _46
REMARK   24  A    between atoms: _48  and  _50
REMARK   25  A    between atoms: _50  and  _51
REMARK   26  A    between atoms: _50  and  _53
REMARK   27  A    between atoms: _53  and  _54
REMARK   28  A    between atoms: _59  and  _61
REMARK   29  A    between atoms: _61  and  _62
REMARK   30  A    between atoms: _61  and  _64
REMARK   31  A    between atoms: _64  and  _65
REMARK   32  A    between atoms: _65  and  _66
REMARK   33  A    between atoms: _66  and  _67
REMARK   34  A    between atoms: _76  and  _78
REMARK   35  A    between atoms: _78  and  _79
REMARK   36  A    between atoms: _78  and  _81
REMARK   37  A    between atoms: _81  and  _82
REMARK   38  A    between atoms: _85  and  _87
REMARK   39  A    between atoms: _87  and  _88
REMARK   40  A    between atoms: _87  and  _90
REMARK   41  A    between atoms: _90  and  _91
REMARK   42  A    between atoms: _94  and  _96
REMARK   43  A    between atoms: _96  and  _97
REMARK   44  A    between atoms: _96  and  _99
REMARK   45  A    between atoms: _99  and  _100
REMARK   46  A    between atoms: _106  and  _108
REMARK   47  A    between atoms: _108  and  _109
REMARK   48  A    between atoms: _108  and  _111
REMARK   49  A    between atoms: _111  and  _112
REMARK   50  A    between atoms: _117  and  _119
REMARK   51  A    between atoms: _119  and  _120
REMARK   52  A    between atoms: _123  and  _125
REMARK   53  A    between atoms: _125  and  _126
REMARK   54  A    between atoms: _129  and  _131
REMARK   55  A    between atoms: _131  and  _132
REMARK   56  A    between atoms: _131  and  _134
REMARK   57  A    between atoms: _134  and  _135
REMARK   58  A    between atoms: _138  and  _140
REMARK   59  A    between atoms: _140  and  _141
REMARK   60  A    between atoms: _143  and  _145
REMARK   61  A    between atoms: _145  and  _146
REMARK   62  A    between atoms: _145  and  _148
REMARK   63  A    between atoms: _150  and  _152
REMARK   64  A    between atoms: _152  and  _153
REMARK   65  A    between atoms: _152  and  _155
REMARK   66  A    between atoms: _155  and  _156
REMARK   67  A    between atoms: _156  and  _157
REMARK   68  A    between atoms: _157  and  _158
REMARK   69  A    between atoms: _167  and  _169
REMARK   70  A    between atoms: _169  and  _170
REMARK   71  A    between atoms: _169  and  _172
REMARK   72  A    between atoms: _172  and  _173
REMARK   73  A    between atoms: _176  and  _178
REMARK   74  A    between atoms: _178  and  _179
REMARK   75  A    between atoms: _178  and  _181
REMARK   76  A    between atoms: _181  and  _182
REMARK   77  A    between atoms: _184  and  _186
REMARK   78  A    between atoms: _186  and  _187
REMARK   79  A    between atoms: _186  and  _189
REMARK   80  A    between atoms: _189  and  _190
REMARK   81  A    between atoms: _193  and  _195
REMARK   82  A    between atoms: _195  and  _196
REMARK   83  A    between atoms: _195  and  _198
REMARK   84  A    between atoms: _198  and  _199
REMARK   85  A    between atoms: _199  and  _200
REMARK   86  A    between atoms: _200  and  _201
REMARK   87  A    between atoms: _211  and  _212
REMARK   88  A    between atoms: _217  and  _219
REMARK   89  A    between atoms: _219  and  _220
REMARK   90  A    between atoms: _219  and  _222
REMARK   91  A    between atoms: _222  and  _223
REMARK   92  A    between atoms: _223  and  _224
REMARK   93  A    between atoms: _224  and  _225
REMARK   94  A    between atoms: _234  and  _236
REMARK   95  A    between atoms: _236  and  _237
REMARK   96  A    between atoms: _236  and  _239
REMARK   97  A    between atoms: _242  and  _244
REMARK   98  A    between atoms: _244  and  _245
REMARK   99  A    between atoms: _244  and  _247
REMARK  100  A    between atoms: _250  and  _252
REMARK  101  A    between atoms: _252  and  _253
REMARK  102  A    between atoms: _252  and  _255
REMARK  103  A    between atoms: _255  and  _256
REMARK  104  A    between atoms: _256  and  _257
REMARK  105  A    between atoms: _259  and  _261
REMARK  106  A    between atoms: _261  and  _262
REMARK  107  A    between atoms: _265  and  _267
REMARK  108  A    between atoms: _267  and  _268
REMARK  109  A    between atoms: _267  and  _270
REMARK  110  A    between atoms: _270  and  _271
REMARK  111  A    between atoms: _273  and  _275
REMARK  112  A    between atoms: _275  and  _276
REMARK  113  A    between atoms: _279  and  _281
REMARK  114  A    between atoms: _281  and  _282
REMARK  115  A    between atoms: _281  and  _284
REMARK  116  A    between atoms: _284  and  _285
REMARK  117  A    between atoms: _285  and  _286
REMARK  118  A    between atoms: _291  and  _293
REMARK  119  A    between atoms: _293  and  _294
REMARK  120  A    between atoms: _293  and  _296
REMARK  121  A    between atoms: _299  and  _301
REMARK  122  A    between atoms: _301  and  _302
REMARK  123  A    between atoms: _301  and  _304
REMARK  124  A    between atoms: _304  and  _305
REMARK  125  A    between atoms: _305  and  _306
REMARK  126  A    between atoms: _306  and  _307
REMARK  127  A    between atoms: _307  and  _308
REMARK  128  A    between atoms: _312  and  _314
REMARK  129  A    between atoms: _314  and  _315
REMARK  130  A    between atoms: _314  and  _317
REMARK  131  A    between atoms: _317  and  _318
REMARK  132  A    between atoms: _320  and  _322
REMARK  133  A    between atoms: _322  and  _323
REMARK  134  A    between atoms: _326  and  _328
REMARK  135  A    between atoms: _328  and  _329
REMARK  136  A    between atoms: _328  and  _331
REMARK  137  A    between atoms: _331  and  _332
REMARK  138  A    between atoms: _335  and  _337
REMARK  139  A    between atoms: _337  and  _338
REMARK  140  A    between atoms: _337  and  _340
REMARK  141  A    between atoms: _340  and  _341
REMARK  142  A    between atoms: _341  and  _342
REMARK  143  A    between atoms: _342  and  _343
REMARK  144  A    between atoms: _352  and  _354
REMARK  145  A    between atoms: _354  and  _355
REMARK  146  A    between atoms: _354  and  _357
REMARK  147  A    between atoms: _357  and  _358
REMARK  148  A    between atoms: _361  and  _363
REMARK  149  A    between atoms: _363  and  _364
REMARK  150  A    between atoms: _363  and  _366
REMARK  151  A    between atoms: _366  and  _367
REMARK  152  A    between atoms: _372  and  _374
REMARK  153  A    between atoms: _374  and  _375
REMARK  154  A    between atoms: _374  and  _377
REMARK  155  A    between atoms: _377  and  _378
REMARK  156  A    between atoms: _381  and  _383
REMARK  157  A    between atoms: _383  and  _384
REMARK  158  A    between atoms: _383  and  _386
REMARK  159  A    between atoms: _386  and  _387
REMARK  160  A    between atoms: _390  and  _392
REMARK  161  A    between atoms: _392  and  _393
REMARK  162  A    between atoms: _392  and  _395
REMARK  163  A    between atoms: _395  and  _396
REMARK  164  A    between atoms: _398  and  _400
REMARK  165  A    between atoms: _400  and  _401
REMARK  166  A    between atoms: _400  and  _403
REMARK  167  A    between atoms: _403  and  _404
REMARK  168  A    between atoms: _404  and  _405
REMARK  169  A    between atoms: _405  and  _406
REMARK  170  A    between atoms: _415  and  _417
REMARK  171  A    between atoms: _417  and  _418
REMARK  172  A    between atoms: _422  and  _423
REMARK  173  A    between atoms: _428  and  _430
REMARK  174  A    between atoms: _430  and  _431
REMARK  175  A    between atoms: _430  and  _433
REMARK  176  A    between atoms: _433  and  _434
REMARK  177  A    between atoms: _434  and  _435
REMARK  178  A    between atoms: _437  and  _439
REMARK  179  A    between atoms: _439  and  _440
REMARK  180  A    between atoms: _439  and  _442
REMARK  181  A    between atoms: _442  and  _443
REMARK  182  A    between atoms: _446  and  _448
REMARK  183  A    between atoms: _448  and  _449
REMARK  184  A    between atoms: _448  and  _451
REMARK  185  A    between atoms: _451  and  _452
REMARK  186  A    between atoms: _455  and  _457
REMARK  187  A    between atoms: _457  and  _458
REMARK  188  A    between atoms: _457  and  _460
REMARK  189  A    between atoms: _460  and  _461
REMARK  190  A    between atoms: _461  and  _462
REMARK  191  A    between atoms: _465  and  _467
REMARK  192  A    between atoms: _467  and  _468
REMARK  193  A    between atoms: _467  and  _470
REMARK  194  A    between atoms: _470  and  _471
REMARK  195  A    between atoms: _471  and  _472
REMARK  196  A    between atoms: _475  and  _477
REMARK  197  A    between atoms: _477  and  _478
REMARK  198  A    between atoms: _477  and  _480
REMARK  199  A    between atoms: _480  and  _481
REMARK  200  A    between atoms: _484  and  _486
REMARK  201  A    between atoms: _486  and  _487
REMARK  202  A    between atoms: _486  and  _489
REMARK  203  A    between atoms: _492  and  _494
REMARK  204  A    between atoms: _494  and  _495
REMARK  205  A    between atoms: _494  and  _497
REMARK  206  A    between atoms: _497  and  _498
REMARK  207  A    between atoms: _498  and  _499
REMARK  208  A    between atoms: _499  and  _500
REMARK  209  A    between atoms: _500  and  _501
REMARK  210  A    between atoms: _505  and  _507
REMARK  211  A    between atoms: _507  and  _508
REMARK  212  A    between atoms: _507  and  _510
REMARK  213  A    between atoms: _510  and  _511
REMARK  214  A    between atoms: _511  and  _512
REMARK  215  A    between atoms: _515  and  _517
REMARK  216  A    between atoms: _517  and  _518
REMARK  217  A    between atoms: _517  and  _520
REMARK  218  A    between atoms: _520  and  _521
REMARK  219  A    between atoms: _523  and  _525
REMARK  220  A    between atoms: _525  and  _526
REMARK  221  A    between atoms: _525  and  _528
REMARK  222  A    between atoms: _528  and  _529
REMARK  223  A    between atoms: _529  and  _530
REMARK  224  A    between atoms: _530  and  _531
REMARK  225  A    between atoms: _540  and  _542
REMARK  226  A    between atoms: _542  and  _543
REMARK  227  A    between atoms: _542  and  _545
REMARK  228  A    between atoms: _545  and  _546
REMARK  229  A    between atoms: _549  and  _551
REMARK  230  A    between atoms: _551  and  _552
REMARK  231  A    between atoms: _551  and  _554
REMARK  232  A    between atoms: _554  and  _555
REMARK  233  A    between atoms: _560  and  _562
REMARK  234  A    between atoms: _562  and  _563
REMARK  235  A    between atoms: _562  and  _565
REMARK  236  A    between atoms: _565  and  _566
REMARK  237  A    between atoms: _566  and  _567
REMARK  238  A    between atoms: _567  and  _568
REMARK  239  A    between atoms: _577  and  _579
REMARK  240  A    between atoms: _579  and  _580
REMARK  241  A    between atoms: _579  and  _582
REMARK  242  A    between atoms: _582  and  _583
REMARK  243  A    between atoms: _586  and  _588
REMARK  244  A    between atoms: _588  and  _589
REMARK  245  A    between atoms: _588  and  _591
REMARK  246  A    between atoms: _591  and  _592
REMARK  247  A    between atoms: _595  and  _597
REMARK  248  A    between atoms: _597  and  _598
REMARK  249  A    between atoms: _597  and  _600
REMARK  250  A    between atoms: _600  and  _601
REMARK                            x       y       z     vdW  Elec       q    Type
REMARK                         _______ _______ _______ _____ _____    ______ ____
ROOT
ATOM      1  C   ARG A   2    -122.982  38.195 127.432  0.00  0.00    +0.241 C 
ATOM      2  N   ASP A   3    -122.387  39.098 128.210  0.00  0.00    -0.297 N 
ATOM      3  H   ASP A   3    -122.918  39.955 128.466  0.00  0.00    +0.150 HD
ATOM      4  O   ARG A   2    -122.484  37.104 127.147  0.00  0.00    -0.273 OA
ENDROOT
BRANCH   2   5
ATOM      5  CA  ASP A   3    -121.018  38.947 128.726  0.00  0.00    +0.160 C 
BRANCH   5   6
ATOM      6  C   ASP A   3    -120.819  38.582 130.200  0.00  0.00    +0.241 C 
ATOM      7  O   ASP A   3    -119.793  38.929 130.807  0.00  0.00    -0.273 OA
ATOM      8  N   HIS A   4    -121.778  37.858 130.772  0.00  0.00    -0.297 N 
ATOM      9  H   HIS A   4    -122.611  37.578 130.215  0.00  0.00    +0.150 HD
BRANCH   8  10
ATOM     10  CA  HIS A   4    -121.677  37.452 132.170  0.00  0.00    +0.155 C 
BRANCH  10  11
ATOM     11  C   HIS A   4    -120.431  36.589 132.462  0.00  0.00    +0.241 C 
ATOM     12  O   HIS A   4    -119.799  36.723 133.534  0.00  0.00    -0.273 OA
ATOM     13  N   THR A   5    -120.062  35.720 131.518  0.00  0.00    -0.296 N 
ATOM     14  H   THR A   5    -120.604  35.653 130.633  0.00  0.00    +0.150 HD
BRANCH  13  15
ATOM     15  CA  THR A   5    -118.902  34.866 131.727  0.00  0.00    +0.164 C 
BRANCH  15  16
ATOM     16  CB  THR A   5    -118.750  33.832 130.570  0.00  0.00    +0.136 C 
ATOM     17  CG2 THR A   5    -117.496  32.969 130.765  0.00  0.00    +0.034 C 
BRANCH  16  18
ATOM     18  OG1 THR A   5    -119.906  32.973 130.544  0.00  0.00    -0.382 OA
ATOM     19  HG1 THR A   5    -119.811  32.316 129.810  0.00  0.00    +0.210 HD
ENDBRANCH  16  18
ENDBRANCH  15  16
BRANCH  15  20
ATOM     20  C   THR A   5    -117.633  35.730 131.857  0.00  0.00    +0.229 C 
ATOM     21  O   THR A   5    -116.898  35.606 132.834  0.00  0.00    -0.286 OA
ENDBRANCH  15  20
ENDBRANCH  13  15
ENDBRANCH  10  11
BRANCH  10  22
ATOM     22  CB  HIS A   4    -122.964  36.717 132.566  0.00  0.00    +0.076 C 
BRANCH  22  23
ATOM     23  CG  HIS A   4    -124.205  37.478 132.219  0.00  0.00    +0.082 A 
ATOM     24  ND1 HIS A   4    -124.404  38.780 132.620  0.00  0.00    -0.227 NA
ATOM     25  CE1 HIS A   4    -125.560  39.212 132.140  0.00  0.00    +0.199 A 
ATOM     26  NE2 HIS A   4    -126.117  38.235 131.445  0.00  0.00    -0.221 NA
ATOM     27  CD2 HIS A   4    -125.291  37.138 131.480  0.00  0.00    +0.115 A 
ENDBRANCH  22  23
ENDBRANCH  10  22
ENDBRANCH   8  10
ENDBRANCH   5   6
BRANCH   5  28
ATOM     28  CB  ASP A   3    -120.242  40.242 128.410  0.00  0.00    +0.143 C 
BRANCH  28  29
ATOM     29  CG  ASP A   3    -120.908  41.495 128.996  0.00  0.00    +0.367 C 
ATOM     30  OD2 ASP A   3    -122.072  41.397 129.470  0.00  0.00    -0.246 OA
ATOM     31  OD1 ASP A   3    -120.268  42.590 128.983  0.00  0.00    -0.246 OA
ENDBRANCH  28  29
ENDBRANCH   5  28
ENDBRANCH   2   5
BRANCH   1  32
ATOM     32  CA  ARG A   2    -124.358  38.601 126.897  0.00  0.00    +0.149 C 
BRANCH  32  34
ATOM     33  C   THR A   1    -123.469  38.766 124.646  0.00  0.00    +0.241 C 
ATOM     34  N   ARG A   2    -124.446  38.339 125.458  0.00  0.00    -0.297 N 
ATOM     35  H   ARG A   2    -125.262  37.825 125.069  0.00  0.00    +0.150 HD
ATOM     36  O   THR A   1    -122.452  39.323 125.069  0.00  0.00    -0.274 OA
BRANCH  33  37
ATOM     37  CA  THR A   1    -123.615  38.519 123.135  0.00  0.00    +0.172 C 
BRANCH  37  38
ATOM     38  CB  THR A   1    -123.502  37.007 122.859  0.00  0.00    +0.135 C 
ATOM     39  CG2 THR A   1    -123.584  36.721 121.339  0.00  0.00    +0.034 C 
BRANCH  38  40
ATOM     40  OG1 THR A   1    -122.261  36.519 123.382  0.00  0.00    -0.383 OA
ATOM     41  HG1 THR A   1    -121.510  36.993 122.943  0.00  0.00    +0.210 HD
ENDBRANCH  38  40
ENDBRANCH  37  38
BRANCH  37  42
ATOM     42  N   THR A   1    -122.530  39.288 122.521  0.00  0.00    -0.236 NA
ATOM     43  H   THR A   1    -121.556  39.142 122.855  0.00  0.00    +0.142 HD
ENDBRANCH  37  42
ENDBRANCH  33  37
ENDBRANCH  32  34
BRANCH  32  44
ATOM     44  CB  ARG A   2    -125.509  37.938 127.666  0.00  0.00    +0.033 C 
BRANCH  44  45
ATOM     45  CG  ARG A   2    -125.535  36.429 127.695  0.00  0.00    +0.045 C 
BRANCH  45  46
ATOM     46  CD  ARG A   2    -126.898  35.968 128.258  0.00  0.00    +0.174 C 
BRANCH  46  47
ATOM     47  NE  ARG A   2    -127.993  36.239 127.329  0.00  0.00    -0.265 N 
ATOM     48  CZ  ARG A   2    -129.278  35.958 127.569  0.00  0.00    +0.342 C 
ATOM     49  NH2 ARG A   2    -129.655  35.401 128.725  0.00  0.00    -0.292 N 
ATOM     50 HH21 ARG A   2    -128.945  35.181 129.452  0.00  0.00    +0.255 HD
ATOM     51 HH22 ARG A   2    -130.658  35.188 128.897  0.00  0.00    +0.255 HD
ATOM     52  NH1 ARG A   2    -130.187  36.204 126.641  0.00  0.00    -0.292 N 
ATOM     53 HH11 ARG A   2    -131.188  35.987 126.823  0.00  0.00    +0.255 HD
ATOM     54 HH12 ARG A   2    -129.901  36.614 125.729  0.00  0.00    +0.255 HD
ATOM     55  HE  ARG A   2    -127.756  36.681 126.418  0.00  0.00    +0.259 HD
ENDBRANCH  46  47
ENDBRANCH  45  46
ENDBRANCH  44  45
ENDBRANCH  32  44
ENDBRANCH   1  32
TORSDOF 22
REMARK  Name = ../refined-set-2016/2pqb/2pqb_pocket.pdb
REMARK  250 active torsions:
REMARK  status: ('A' for Active; 'I' for Inactive)
REMARK    1  A    between atoms: _1  and  _3
REMARK    2  A    between atoms: _3  and  _4
REMARK    3  A    between atoms: _3  and  _6
REMARK    4  A    between atoms: _6  and  _7
REMARK    5  A    between atoms: _10  and  _12
REMARK    6  A    between atoms: _12  and  _13
REMARK    7  A    between atoms: _12  and  _15
REMARK    8  A    between atoms: _15  and  _16
REMARK    9  A    between atoms: _16  and  _17
REMARK   10  A    between atoms: _17  and  _18
REMARK   11  A    between atoms: _18  and  _19
REMARK   12  A    between atoms: _23  and  _25
REMARK   13  A    between atoms: _25  and  _26
REMARK   14  A    between atoms: _25  and  _28
REMARK   15  A    between atoms: _28  and  _29
REMARK   16  A    between atoms: _31  and  _33
REMARK   17  A    between atoms: _33  and  _34
REMARK   18  A    between atoms: _33  and  _36
REMARK   19  A    between atoms: _36  and  _37
REMARK   20  A    between atoms: _40  and  _42
REMARK   21  A    between atoms: _42  and  _43
REMARK   22  A    between atoms: _42  and  _45
REMARK   23  A    between atoms: _45  and  _46
REMARK   24  A    between atoms: _48  and  _50
REMARK   25  A    between atoms: _50  and  _51
REMARK   26  A    between atoms: _50  and  _53
REMARK   27  A    between atoms: _53  and  _54
REMARK   28  A    between atoms: _59  and  _61
REMARK   29  A    between atoms: _61  and  _62
REMARK   30  A    between atoms: _61  and  _64
REMARK   31  A    between atoms: _64  and  _65
REMARK   32  A    between atoms: _65  and  _66
REMARK   33  A    between atoms: _66  and  _67
REMARK   34  A    between atoms: _76  and  _78
REMARK   35  A    between atoms: _78  and  _79
REMARK   36  A    between atoms: _78  and  _81
REMARK   37  A    between atoms: _81  and  _82
REMARK   38  A    between atoms: _85  and  _87
REMARK   39  A    between atoms: _87  and  _88
REMARK   40  A    between atoms: _87  and  _90
REMARK   41  A    between atoms: _90  and  _91
REMARK   42  A    between atoms: _94  and  _96
REMARK   43  A    between atoms: _96  and  _97
REMARK   44  A    between atoms: _96  and  _99
REMARK   45  A    between atoms: _99  and  _100
REMARK   46  A    between atoms: _106  and  _108
REMARK   47  A    between atoms: _108  and  _109
REMARK   48  A    between atoms: _108  and  _111
REMARK   49  A    between atoms: _111  and  _112
REMARK   50  A    between atoms: _117  and  _119
REMARK   51  A    between atoms: _119  and  _120
REMARK   52  A    between atoms: _123  and  _125
REMARK   53  A    between atoms: _125  and  _126
REMARK   54  A    between atoms: _129  and  _131
REMARK   55  A    between atoms: _131  and  _132
REMARK   56  A    between atoms: _131  and  _134
REMARK   57  A    between atoms: _134  and  _135
REMARK   58  A    between atoms: _138  and  _140
REMARK   59  A    between atoms: _140  and  _141
REMARK   60  A    between atoms: _143  and  _145
REMARK   61  A    between atoms: _145  and  _146
REMARK   62  A    between atoms: _145  and  _148
REMARK   63  A    between atoms: _150  and  _152
REMARK   64  A    between atoms: _152  and  _153
REMARK   65  A    between atoms: _152  and  _155
REMARK   66  A    between atoms: _155  and  _156
REMARK   67  A    between atoms: _156  and  _157
REMARK   68  A    between atoms: _157  and  _158
REMARK   69  A    between atoms: _167  and  _169
REMARK   70  A    between atoms: _169  and  _170
REMARK   71  A    between atoms: _169  and  _172
REMARK   72  A    between atoms: _172  and  _173
REMARK   73  A    between atoms: _176  and  _178
REMARK   74  A    between atoms: _178  and  _179
REMARK   75  A    between atoms: _178  and  _181
REMARK   76  A    between atoms: _181  and  _182
REMARK   77  A    between atoms: _184  and  _186
REMARK   78  A    between atoms: _186  and  _187
REMARK   79  A    between atoms: _186  and  _189
REMARK   80  A    between atoms: _189  and  _190
REMARK   81  A    between atoms: _193  and  _195
REMARK   82  A    between atoms: _195  and  _196
REMARK   83  A    between atoms: _195  and  _198
REMARK   84  A    between atoms: _198  and  _199
REMARK   85  A    between atoms: _199  and  _200
REMARK   86  A    between atoms: _200  and  _201
REMARK   87  A    between atoms: _211  and  _212
REMARK   88  A    between atoms: _217  and  _219
REMARK   89  A    between atoms: _219  and  _220
REMARK   90  A    between atoms: _219  and  _222
REMARK   91  A    between atoms: _222  and  _223
REMARK   92  A    between atoms: _223  and  _224
REMARK   93  A    between atoms: _224  and  _225
REMARK   94  A    between atoms: _234  and  _236
REMARK   95  A    between atoms: _236  and  _237
REMARK   96  A    between atoms: _236  and  _239
REMARK   97  A    between atoms: _242  and  _244
REMARK   98  A    between atoms: _244  and  _245
REMARK   99  A    between atoms: _244  and  _247
REMARK  100  A    between atoms: _250  and  _252
REMARK  101  A    between atoms: _252  and  _253
REMARK  102  A    between atoms: _252  and  _255
REMARK  103  A    between atoms: _255  and  _256
REMARK  104  A    between atoms: _256  and  _257
REMARK  105  A    between atoms: _259  and  _261
REMARK  106  A    between atoms: _261  and  _262
REMARK  107  A    between atoms: _265  and  _267
REMARK  108  A    between atoms: _267  and  _268
REMARK  109  A    between atoms: _267  and  _270
REMARK  110  A    between atoms: _270  and  _271
REMARK  111  A    between atoms: _273  and  _275
REMARK  112  A    between atoms: _275  and  _276
REMARK  113  A    between atoms: _279  and  _281
REMARK  114  A    between atoms: _281  and  _282
REMARK  115  A    between atoms: _281  and  _284
REMARK  116  A    between atoms: _284  and  _285
REMARK  117  A    between atoms: _285  and  _286
REMARK  118  A    between atoms: _291  and  _293
REMARK  119  A    between atoms: _293  and  _294
REMARK  120  A    between atoms: _293  and  _296
REMARK  121  A    between atoms: _299  and  _301
REMARK  122  A    between atoms: _301  and  _302
REMARK  123  A    between atoms: _301  and  _304
REMARK  124  A    between atoms: _304  and  _305
REMARK  125  A    between atoms: _305  and  _306
REMARK  126  A    between atoms: _306  and  _307
REMARK  127  A    between atoms: _307  and  _308
REMARK  128  A    between atoms: _312  and  _314
REMARK  129  A    between atoms: _314  and  _315
REMARK  130  A    between atoms: _314  and  _317
REMARK  131  A    between atoms: _317  and  _318
REMARK  132  A    between atoms: _320  and  _322
REMARK  133  A    between atoms: _322  and  _323
REMARK  134  A    between atoms: _326  and  _328
REMARK  135  A    between atoms: _328  and  _329
REMARK  136  A    between atoms: _328  and  _331
REMARK  137  A    between atoms: _331  and  _332
REMARK  138  A    between atoms: _335  and  _337
REMARK  139  A    between atoms: _337  and  _338
REMARK  140  A    between atoms: _337  and  _340
REMARK  141  A    between atoms: _340  and  _341
REMARK  142  A    between atoms: _341  and  _342
REMARK  143  A    between atoms: _342  and  _343
REMARK  144  A    between atoms: _352  and  _354
REMARK  145  A    between atoms: _354  and  _355
REMARK  146  A    between atoms: _354  and  _357
REMARK  147  A    between atoms: _357  and  _358
REMARK  148  A    between atoms: _361  and  _363
REMARK  149  A    between atoms: _363  and  _364
REMARK  150  A    between atoms: _363  and  _366
REMARK  151  A    between atoms: _366  and  _367
REMARK  152  A    between atoms: _372  and  _374
REMARK  153  A    between atoms: _374  and  _375
REMARK  154  A    between atoms: _374  and  _377
REMARK  155  A    between atoms: _377  and  _378
REMARK  156  A    between atoms: _381  and  _383
REMARK  157  A    between atoms: _383  and  _384
REMARK  158  A    between atoms: _383  and  _386
REMARK  159  A    between atoms: _386  and  _387
REMARK  160  A    between atoms: _390  and  _392
REMARK  161  A    between atoms: _392  and  _393
REMARK  162  A    between atoms: _392  and  _395
REMARK  163  A    between atoms: _395  and  _396
REMARK  164  A    between atoms: _398  and  _400
REMARK  165  A    between atoms: _400  and  _401
REMARK  166  A    between atoms: _400  and  _403
REMARK  167  A    between atoms: _403  and  _404
REMARK  168  A    between atoms: _404  and  _405
REMARK  169  A    between atoms: _405  and  _406
REMARK  170  A    between atoms: _415  and  _417
REMARK  171  A    between atoms: _417  and  _418
REMARK  172  A    between atoms: _422  and  _423
REMARK  173  A    between atoms: _428  and  _430
REMARK  174  A    between atoms: _430  and  _431
REMARK  175  A    between atoms: _430  and  _433
REMARK  176  A    between atoms: _433  and  _434
REMARK  177  A    between atoms: _434  and  _435
REMARK  178  A    between atoms: _437  and  _439
REMARK  179  A    between atoms: _439  and  _440
REMARK  180  A    between atoms: _439  and  _442
REMARK  181  A    between atoms: _442  and  _443
REMARK  182  A    between atoms: _446  and  _448
REMARK  183  A    between atoms: _448  and  _449
REMARK  184  A    between atoms: _448  and  _451
REMARK  185  A    between atoms: _451  and  _452
REMARK  186  A    between atoms: _455  and  _457
REMARK  187  A    between atoms: _457  and  _458
REMARK  188  A    between atoms: _457  and  _460
REMARK  189  A    between atoms: _460  and  _461
REMARK  190  A    between atoms: _461  and  _462
REMARK  191  A    between atoms: _465  and  _467
REMARK  192  A    between atoms: _467  and  _468
REMARK  193  A    between atoms: _467  and  _470
REMARK  194  A    between atoms: _470  and  _471
REMARK  195  A    between atoms: _471  and  _472
REMARK  196  A    between atoms: _475  and  _477
REMARK  197  A    between atoms: _477  and  _478
REMARK  198  A    between atoms: _477  and  _480
REMARK  199  A    between atoms: _480  and  _481
REMARK  200  A    between atoms: _484  and  _486
REMARK  201  A    between atoms: _486  and  _487
REMARK  202  A    between atoms: _486  and  _489
REMARK  203  A    between atoms: _492  and  _494
REMARK  204  A    between atoms: _494  and  _495
REMARK  205  A    between atoms: _494  and  _497
REMARK  206  A    between atoms: _497  and  _498
REMARK  207  A    between atoms: _498  and  _499
REMARK  208  A    between atoms: _499  and  _500
REMARK  209  A    between atoms: _500  and  _501
REMARK  210  A    between atoms: _505  and  _507
REMARK  211  A    between atoms: _507  and  _508
REMARK  212  A    between atoms: _507  and  _510
REMARK  213  A    between atoms: _510  and  _511
REMARK  214  A    between atoms: _511  and  _512
REMARK  215  A    between atoms: _515  and  _517
REMARK  216  A    between atoms: _517  and  _518
REMARK  217  A    between atoms: _517  and  _520
REMARK  218  A    between atoms: _520  and  _521
REMARK  219  A    between atoms: _523  and  _525
REMARK  220  A    between atoms: _525  and  _526
REMARK  221  A    between atoms: _525  and  _528
REMARK  222  A    between atoms: _528  and  _529
REMARK  223  A    between atoms: _529  and  _530
REMARK  224  A    between atoms: _530  and  _531
REMARK  225  A    between atoms: _540  and  _542
REMARK  226  A    between atoms: _542  and  _543
REMARK  227  A    between atoms: _542  and  _545
REMARK  228  A    between atoms: _545  and  _546
REMARK  229  A    between atoms: _549  and  _551
REMARK  230  A    between atoms: _551  and  _552
REMARK  231  A    between atoms: _551  and  _554
REMARK  232  A    between atoms: _554  and  _555
REMARK  233  A    between atoms: _560  and  _562
REMARK  234  A    between atoms: _562  and  _563
REMARK  235  A    between atoms: _562  and  _565
REMARK  236  A    between atoms: _565  and  _566
REMARK  237  A    between atoms: _566  and  _567
REMARK  238  A    between atoms: _567  and  _568
REMARK  239  A    between atoms: _577  and  _579
REMARK  240  A    between atoms: _579  and  _580
REMARK  241  A    between atoms: _579  and  _582
REMARK  242  A    between atoms: _582  and  _583
REMARK  243  A    between atoms: _586  and  _588
REMARK  244  A    between atoms: _588  and  _589
REMARK  245  A    between atoms: _588  and  _591
REMARK  246  A    between atoms: _591  and  _592
REMARK  247  A    between atoms: _595  and  _597
REMARK  248  A    between atoms: _597  and  _598
REMARK  249  A    between atoms: _597  and  _600
REMARK  250  A    between atoms: _600  and  _601
REMARK                            x       y       z     vdW  Elec       q    Type
REMARK                         _______ _______ _______ _____ _____    ______ ____
ROOT
ATOM      1  CA  ASP A   1    -133.704  38.792 135.685  0.00  0.00    +0.144 C 
ENDROOT
BRANCH   1   2
ATOM      2  N   ASP A   1    -133.692  39.328 137.051  0.00  0.00    -0.239 NA
ATOM      3  H   ASP A   1    -134.269  38.856 137.776  0.00  0.00    +0.142 HD
ENDBRANCH   1   2
BRANCH   1   4
ATOM      4  C   ASP A   1    -134.488  39.670 134.691  0.00  0.00    +0.225 C 
ATOM      5  O   ASP A   1    -135.694  39.851 134.841  0.00  0.00    -0.287 OA
ENDBRANCH   1   4
BRANCH   1   6
ATOM      6  CB  ASP A   1    -134.308  37.374 135.737  0.00  0.00    +0.139 C 
BRANCH   6   7
ATOM      7  CG  ASP A   1    -134.063  36.586 134.473  0.00  0.00    +0.367 C 
ATOM      8  OD2 ASP A   1    -133.715  35.387 134.576  0.00  0.00    -0.246 OA
ATOM      9  OD1 ASP A   1    -134.222  37.163 133.378  0.00  0.00    -0.246 OA
ENDBRANCH   6   7
ENDBRANCH   1   6
TORSDOF 4
REMARK  Name = ../refined-set-2016/2pqb/2pqb_pocket.pdb
REMARK  250 active torsions:
REMARK  status: ('A' for Active; 'I' for Inactive)
REMARK    1  A    between atoms: _1  and  _3
REMARK    2  A    between atoms: _3  and  _4
REMARK    3  A    between atoms: _3  and  _6
REMARK    4  A    between atoms: _6  and  _7
REMARK    5  A    between atoms: _10  and  _12
REMARK    6  A    between atoms: _12  and  _13
REMARK    7  A    between atoms: _12  and  _15
REMARK    8  A    between atoms: _15  and  _16
REMARK    9  A    between atoms: _16  and  _17
REMARK   10  A    between atoms: _17  and  _18
REMARK   11  A    between atoms: _18  and  _19
REMARK   12  A    between atoms: _23  and  _25
REMARK   13  A    between atoms: _25  and  _26
REMARK   14  A    between atoms: _25  and  _28
REMARK   15  A    between atoms: _28  and  _29
REMARK   16  A    between atoms: _31  and  _33
REMARK   17  A    between atoms: _33  and  _34
REMARK   18  A    between atoms: _33  and  _36
REMARK   19  A    between atoms: _36  and  _37
REMARK   20  A    between atoms: _40  and  _42
REMARK   21  A    between atoms: _42  and  _43
REMARK   22  A    between atoms: _42  and  _45
REMARK   23  A    between atoms: _45  and  _46
REMARK   24  A    between atoms: _48  and  _50
REMARK   25  A    between atoms: _50  and  _51
REMARK   26  A    between atoms: _50  and  _53
REMARK   27  A    between atoms: _53  and  _54
REMARK   28  A    between atoms: _59  and  _61
REMARK   29  A    between atoms: _61  and  _62
REMARK   30  A    between atoms: _61  and  _64
REMARK   31  A    between atoms: _64  and  _65
REMARK   32  A    between atoms: _65  and  _66
REMARK   33  A    between atoms: _66  and  _67
REMARK   34  A    between atoms: _76  and  _78
REMARK   35  A    between atoms: _78  and  _79
REMARK   36  A    between atoms: _78  and  _81
REMARK   37  A    between atoms: _81  and  _82
REMARK   38  A    between atoms: _85  and  _87
REMARK   39  A    between atoms: _87  and  _88
REMARK   40  A    between atoms: _87  and  _90
REMARK   41  A    between atoms: _90  and  _91
REMARK   42  A    between atoms: _94  and  _96
REMARK   43  A    between atoms: _96  and  _97
REMARK   44  A    between atoms: _96  and  _99
REMARK   45  A    between atoms: _99  and  _100
REMARK   46  A    between atoms: _106  and  _108
REMARK   47  A    between atoms: _108  and  _109
REMARK   48  A    between atoms: _108  and  _111
REMARK   49  A    between atoms: _111  and  _112
REMARK   50  A    between atoms: _117  and  _119
REMARK   51  A    between atoms: _119  and  _120
REMARK   52  A    between atoms: _123  and  _125
REMARK   53  A    between atoms: _125  and  _126
REMARK   54  A    between atoms: _129  and  _131
REMARK   55  A    between atoms: _131  and  _132
REMARK   56  A    between atoms: _131  and  _134
REMARK   57  A    between atoms: _134  and  _135
REMARK   58  A    between atoms: _138  and  _140
REMARK   59  A    between atoms: _140  and  _141
REMARK   60  A    between atoms: _143  and  _145
REMARK   61  A    between atoms: _145  and  _146
REMARK   62  A    between atoms: _145  and  _148
REMARK   63  A    between atoms: _150  and  _152
REMARK   64  A    between atoms: _152  and  _153
REMARK   65  A    between atoms: _152  and  _155
REMARK   66  A    between atoms: _155  and  _156
REMARK   67  A    between atoms: _156  and  _157
REMARK   68  A    between atoms: _157  and  _158
REMARK   69  A    between atoms: _167  and  _169
REMARK   70  A    between atoms: _169  and  _170
REMARK   71  A    between atoms: _169  and  _172
REMARK   72  A    between atoms: _172  and  _173
REMARK   73  A    between atoms: _176  and  _178
REMARK   74  A    between atoms: _178  and  _179
REMARK   75  A    between atoms: _178  and  _181
REMARK   76  A    between atoms: _181  and  _182
REMARK   77  A    between atoms: _184  and  _186
REMARK   78  A    between atoms: _186  and  _187
REMARK   79  A    between atoms: _186  and  _189
REMARK   80  A    between atoms: _189  and  _190
REMARK   81  A    between atoms: _193  and  _195
REMARK   82  A    between atoms: _195  and  _196
REMARK   83  A    between atoms: _195  and  _198
REMARK   84  A    between atoms: _198  and  _199
REMARK   85  A    between atoms: _199  and  _200
REMARK   86  A    between atoms: _200  and  _201
REMARK   87  A    between atoms: _211  and  _212
REMARK   88  A    between atoms: _217  and  _219
REMARK   89  A    between atoms: _219  and  _220
REMARK   90  A    between atoms: _219  and  _222
REMARK   91  A    between atoms: _222  and  _223
REMARK   92  A    between atoms: _223  and  _224
REMARK   93  A    between atoms: _224  and  _225
REMARK   94  A    between atoms: _234  and  _236
REMARK   95  A    between atoms: _236  and  _237
REMARK   96  A    between atoms: _236  and  _239
REMARK   97  A    between atoms: _242  and  _244
REMARK   98  A    between atoms: _244  and  _245
REMARK   99  A    between atoms: _244  and  _247
REMARK  100  A    between atoms: _250  and  _252
REMARK  101  A    between atoms: _252  and  _253
REMARK  102  A    between atoms: _252  and  _255
REMARK  103  A    between atoms: _255  and  _256
REMARK  104  A    between atoms: _256  and  _257
REMARK  105  A    between atoms: _259  and  _261
REMARK  106  A    between atoms: _261  and  _262
REMARK  107  A    between atoms: _265  and  _267
REMARK  108  A    between atoms: _267  and  _268
REMARK  109  A    between atoms: _267  and  _270
REMARK  110  A    between atoms: _270  and  _271
REMARK  111  A    between atoms: _273  and  _275
REMARK  112  A    between atoms: _275  and  _276
REMARK  113  A    between atoms: _279  and  _281
REMARK  114  A    between atoms: _281  and  _282
REMARK  115  A    between atoms: _281  and  _284
REMARK  116  A    between atoms: _284  and  _285
REMARK  117  A    between atoms: _285  and  _286
REMARK  118  A    between atoms: _291  and  _293
REMARK  119  A    between atoms: _293  and  _294
REMARK  120  A    between atoms: _293  and  _296
REMARK  121  A    between atoms: _299  and  _301
REMARK  122  A    between atoms: _301  and  _302
REMARK  123  A    between atoms: _301  and  _304
REMARK  124  A    between atoms: _304  and  _305
REMARK  125  A    between atoms: _305  and  _306
REMARK  126  A    between atoms: _306  and  _307
REMARK  127  A    between atoms: _307  and  _308
REMARK  128  A    between atoms: _312  and  _314
REMARK  129  A    between atoms: _314  and  _315
REMARK  130  A    between atoms: _314  and  _317
REMARK  131  A    between atoms: _317  and  _318
REMARK  132  A    between atoms: _320  and  _322
REMARK  133  A    between atoms: _322  and  _323
REMARK  134  A    between atoms: _326  and  _328
REMARK  135  A    between atoms: _328  and  _329
REMARK  136  A    between atoms: _328  and  _331
REMARK  137  A    between atoms: _331  and  _332
REMARK  138  A    between atoms: _335  and  _337
REMARK  139  A    between atoms: _337  and  _338
REMARK  140  A    between atoms: _337  and  _340
REMARK  141  A    between atoms: _340  and  _341
REMARK  142  A    between atoms: _341  and  _342
REMARK  143  A    between atoms: _342  and  _343
REMARK  144  A    between atoms: _352  and  _354
REMARK  145  A    between atoms: _354  and  _355
REMARK  146  A    between atoms: _354  and  _357
REMARK  147  A    between atoms: _357  and  _358
REMARK  148  A    between atoms: _361  and  _363
REMARK  149  A    between atoms: _363  and  _364
REMARK  150  A    between atoms: _363  and  _366
REMARK  151  A    between atoms: _366  and  _367
REMARK  152  A    between atoms: _372  and  _374
REMARK  153  A    between atoms: _374  and  _375
REMARK  154  A    between atoms: _374  and  _377
REMARK  155  A    between atoms: _377  and  _378
REMARK  156  A    between atoms: _381  and  _383
REMARK  157  A    between atoms: _383  and  _384
REMARK  158  A    between atoms: _383  and  _386
REMARK  159  A    between atoms: _386  and  _387
REMARK  160  A    between atoms: _390  and  _392
REMARK  161  A    between atoms: _392  and  _393
REMARK  162  A    between atoms: _392  and  _395
REMARK  163  A    between atoms: _395  and  _396
REMARK  164  A    between atoms: _398  and  _400
REMARK  165  A    between atoms: _400  and  _401
REMARK  166  A    between atoms: _400  and  _403
REMARK  167  A    between atoms: _403  and  _404
REMARK  168  A    between atoms: _404  and  _405
REMARK  169  A    between atoms: _405  and  _406
REMARK  170  A    between atoms: _415  and  _417
REMARK  171  A    between atoms: _417  and  _418
REMARK  172  A    between atoms: _422  and  _423
REMARK  173  A    between atoms: _428  and  _430
REMARK  174  A    between atoms: _430  and  _431
REMARK  175  A    between atoms: _430  and  _433
REMARK  176  A    between atoms: _433  and  _434
REMARK  177  A    between atoms: _434  and  _435
REMARK  178  A    between atoms: _437  and  _439
REMARK  179  A    between atoms: _439  and  _440
REMARK  180  A    between atoms: _439  and  _442
REMARK  181  A    between atoms: _442  and  _443
REMARK  182  A    between atoms: _446  and  _448
REMARK  183  A    between atoms: _448  and  _449
REMARK  184  A    between atoms: _448  and  _451
REMARK  185  A    between atoms: _451  and  _452
REMARK  186  A    between atoms: _455  and  _457
REMARK  187  A    between atoms: _457  and  _458
REMARK  188  A    between atoms: _457  and  _460
REMARK  189  A    between atoms: _460  and  _461
REMARK  190  A    between atoms: _461  and  _462
REMARK  191  A    between atoms: _465  and  _467
REMARK  192  A    between atoms: _467  and  _468
REMARK  193  A    between atoms: _467  and  _470
REMARK  194  A    between atoms: _470  and  _471
REMARK  195  A    between atoms: _471  and  _472
REMARK  196  A    between atoms: _475  and  _477
REMARK  197  A    between atoms: _477  and  _478
REMARK  198  A    between atoms: _477  and  _480
REMARK  199  A    between atoms: _480  and  _481
REMARK  200  A    between atoms: _484  and  _486
REMARK  201  A    between atoms: _486  and  _487
REMARK  202  A    between atoms: _486  and  _489
REMARK  203  A    between atoms: _492  and  _494
REMARK  204  A    between atoms: _494  and  _495
REMARK  205  A    between atoms: _494  and  _497
REMARK  206  A    between atoms: _497  and  _498
REMARK  207  A    between atoms: _498  and  _499
REMARK  208  A    between atoms: _499  and  _500
REMARK  209  A    between atoms: _500  and  _501
REMARK  210  A    between atoms: _505  and  _507
REMARK  211  A    between atoms: _507  and  _508
REMARK  212  A    between atoms: _507  and  _510
REMARK  213  A    between atoms: _510  and  _511
REMARK  214  A    between atoms: _511  and  _512
REMARK  215  A    between atoms: _515  and  _517
REMARK  216  A    between atoms: _517  and  _518
REMARK  217  A    between atoms: _517  and  _520
REMARK  218  A    between atoms: _520  and  _521
REMARK  219  A    between atoms: _523  and  _525
REMARK  220  A    between atoms: _525  and  _526
REMARK  221  A    between atoms: _525  and  _528
REMARK  222  A    between atoms: _528  and  _529
REMARK  223  A    between atoms: _529  and  _530
REMARK  224  A    between atoms: _530  and  _531
REMARK  225  A    between atoms: _540  and  _542
REMARK  226  A    between atoms: _542  and  _543
REMARK  227  A    between atoms: _542  and  _545
REMARK  228  A    between atoms: _545  and  _546
REMARK  229  A    between atoms: _549  and  _551
REMARK  230  A    between atoms: _551  and  _552
REMARK  231  A    between atoms: _551  and  _554
REMARK  232  A    between atoms: _554  and  _555
REMARK  233  A    between atoms: _560  and  _562
REMARK  234  A    between atoms: _562  and  _563
REMARK  235  A    between atoms: _562  and  _565
REMARK  236  A    between atoms: _565  and  _566
REMARK  237  A    between atoms: _566  and  _567
REMARK  238  A    between atoms: _567  and  _568
REMARK  239  A    between atoms: _577  and  _579
REMARK  240  A    between atoms: _579  and  _580
REMARK  241  A    between atoms: _579  and  _582
REMARK  242  A    between atoms: _582  and  _583
REMARK  243  A    between atoms: _586  and  _588
REMARK  244  A    between atoms: _588  and  _589
REMARK  245  A    between atoms: _588  and  _591
REMARK  246  A    between atoms: _591  and  _592
REMARK  247  A    between atoms: _595  and  _597
REMARK  248  A    between atoms: _597  and  _598
REMARK  249  A    between atoms: _597  and  _600
REMARK  250  A    between atoms: _600  and  _601
REMARK                            x       y       z     vdW  Elec       q    Type
REMARK                         _______ _______ _______ _____ _____    ______ ____
ROOT
ATOM      1  CA  SER A   1    -136.041  38.140 130.724  0.00  0.00    +0.163 C 
ENDROOT
BRANCH   1   2
ATOM      2  N   SER A   1    -135.148  38.971 131.550  0.00  0.00    -0.237 NA
ATOM      3  H   SER A   1    -134.310  38.544 131.993  0.00  0.00    +0.142 HD
ENDBRANCH   1   2
BRANCH   1   4
ATOM      4  CB  SER A   1    -137.340  37.857 131.494  0.00  0.00    +0.227 C 
ATOM      5  OG  SER A   1    -138.423  37.779 130.918  0.00  0.00    -0.287 OA
ENDBRANCH   1   4
BRANCH   1   6
ATOM      6  C   SER A   1    -135.366  36.812 130.348  0.00  0.00    +0.162 C 
BRANCH   6   7
ATOM      7  O   SER A   1    -134.304  37.006 129.416  0.00  0.00    -0.380 OA
ATOM      8  H   SER A   1    -134.662  37.419 128.591  0.00  0.00    +0.211 HD
ENDBRANCH   6   7
ENDBRANCH   1   6
TORSDOF 4
REMARK  Name = ../refined-set-2016/2pqb/2pqb_pocket.pdb
REMARK  250 active torsions:
REMARK  status: ('A' for Active; 'I' for Inactive)
REMARK    1  A    between atoms: _1  and  _3
REMARK    2  A    between atoms: _3  and  _4
REMARK    3  A    between atoms: _3  and  _6
REMARK    4  A    between atoms: _6  and  _7
REMARK    5  A    between atoms: _10  and  _12
REMARK    6  A    between atoms: _12  and  _13
REMARK    7  A    between atoms: _12  and  _15
REMARK    8  A    between atoms: _15  and  _16
REMARK    9  A    between atoms: _16  and  _17
REMARK   10  A    between atoms: _17  and  _18
REMARK   11  A    between atoms: _18  and  _19
REMARK   12  A    between atoms: _23  and  _25
REMARK   13  A    between atoms: _25  and  _26
REMARK   14  A    between atoms: _25  and  _28
REMARK   15  A    between atoms: _28  and  _29
REMARK   16  A    between atoms: _31  and  _33
REMARK   17  A    between atoms: _33  and  _34
REMARK   18  A    between atoms: _33  and  _36
REMARK   19  A    between atoms: _36  and  _37
REMARK   20  A    between atoms: _40  and  _42
REMARK   21  A    between atoms: _42  and  _43
REMARK   22  A    between atoms: _42  and  _45
REMARK   23  A    between atoms: _45  and  _46
REMARK   24  A    between atoms: _48  and  _50
REMARK   25  A    between atoms: _50  and  _51
REMARK   26  A    between atoms: _50  and  _53
REMARK   27  A    between atoms: _53  and  _54
REMARK   28  A    between atoms: _59  and  _61
REMARK   29  A    between atoms: _61  and  _62
REMARK   30  A    between atoms: _61  and  _64
REMARK   31  A    between atoms: _64  and  _65
REMARK   32  A    between atoms: _65  and  _66
REMARK   33  A    between atoms: _66  and  _67
REMARK   34  A    between atoms: _76  and  _78
REMARK   35  A    between atoms: _78  and  _79
REMARK   36  A    between atoms: _78  and  _81
REMARK   37  A    between atoms: _81  and  _82
REMARK   38  A    between atoms: _85  and  _87
REMARK   39  A    between atoms: _87  and  _88
REMARK   40  A    between atoms: _87  and  _90
REMARK   41  A    between atoms: _90  and  _91
REMARK   42  A    between atoms: _94  and  _96
REMARK   43  A    between atoms: _96  and  _97
REMARK   44  A    between atoms: _96  and  _99
REMARK   45  A    between atoms: _99  and  _100
REMARK   46  A    between atoms: _106  and  _108
REMARK   47  A    between atoms: _108  and  _109
REMARK   48  A    between atoms: _108  and  _111
REMARK   49  A    between atoms: _111  and  _112
REMARK   50  A    between atoms: _117  and  _119
REMARK   51  A    between atoms: _119  and  _120
REMARK   52  A    between atoms: _123  and  _125
REMARK   53  A    between atoms: _125  and  _126
REMARK   54  A    between atoms: _129  and  _131
REMARK   55  A    between atoms: _131  and  _132
REMARK   56  A    between atoms: _131  and  _134
REMARK   57  A    between atoms: _134  and  _135
REMARK   58  A    between atoms: _138  and  _140
REMARK   59  A    between atoms: _140  and  _141
REMARK   60  A    between atoms: _143  and  _145
REMARK   61  A    between atoms: _145  and  _146
REMARK   62  A    between atoms: _145  and  _148
REMARK   63  A    between atoms: _150  and  _152
REMARK   64  A    between atoms: _152  and  _153
REMARK   65  A    between atoms: _152  and  _155
REMARK   66  A    between atoms: _155  and  _156
REMARK   67  A    between atoms: _156  and  _157
REMARK   68  A    between atoms: _157  and  _158
REMARK   69  A    between atoms: _167  and  _169
REMARK   70  A    between atoms: _169  and  _170
REMARK   71  A    between atoms: _169  and  _172
REMARK   72  A    between atoms: _172  and  _173
REMARK   73  A    between atoms: _176  and  _178
REMARK   74  A    between atoms: _178  and  _179
REMARK   75  A    between atoms: _178  and  _181
REMARK   76  A    between atoms: _181  and  _182
REMARK   77  A    between atoms: _184  and  _186
REMARK   78  A    between atoms: _186  and  _187
REMARK   79  A    between atoms: _186  and  _189
REMARK   80  A    between atoms: _189  and  _190
REMARK   81  A    between atoms: _193  and  _195
REMARK   82  A    between atoms: _195  and  _196
REMARK   83  A    between atoms: _195  and  _198
REMARK   84  A    between atoms: _198  and  _199
REMARK   85  A    between atoms: _199  and  _200
REMARK   86  A    between atoms: _200  and  _201
REMARK   87  A    between atoms: _211  and  _212
REMARK   88  A    between atoms: _217  and  _219
REMARK   89  A    between atoms: _219  and  _220
REMARK   90  A    between atoms: _219  and  _222
REMARK   91  A    between atoms: _222  and  _223
REMARK   92  A    between atoms: _223  and  _224
REMARK   93  A    between atoms: _224  and  _225
REMARK   94  A    between atoms: _234  and  _236
REMARK   95  A    between atoms: _236  and  _237
REMARK   96  A    between atoms: _236  and  _239
REMARK   97  A    between atoms: _242  and  _244
REMARK   98  A    between atoms: _244  and  _245
REMARK   99  A    between atoms: _244  and  _247
REMARK  100  A    between atoms: _250  and  _252
REMARK  101  A    between atoms: _252  and  _253
REMARK  102  A    between atoms: _252  and  _255
REMARK  103  A    between atoms: _255  and  _256
REMARK  104  A    between atoms: _256  and  _257
REMARK  105  A    between atoms: _259  and  _261
REMARK  106  A    between atoms: _261  and  _262
REMARK  107  A    between atoms: _265  and  _267
REMARK  108  A    between atoms: _267  and  _268
REMARK  109  A    between atoms: _267  and  _270
REMARK  110  A    between atoms: _270  and  _271
REMARK  111  A    between atoms: _273  and  _275
REMARK  112  A    between atoms: _275  and  _276
REMARK  113  A    between atoms: _279  and  _281
REMARK  114  A    between atoms: _281  and  _282
REMARK  115  A    between atoms: _281  and  _284
REMARK  116  A    between atoms: _284  and  _285
REMARK  117  A    between atoms: _285  and  _286
REMARK  118  A    between atoms: _291  and  _293
REMARK  119  A    between atoms: _293  and  _294
REMARK  120  A    between atoms: _293  and  _296
REMARK  121  A    between atoms: _299  and  _301
REMARK  122  A    between atoms: _301  and  _302
REMARK  123  A    between atoms: _301  and  _304
REMARK  124  A    between atoms: _304  and  _305
REMARK  125  A    between atoms: _305  and  _306
REMARK  126  A    between atoms: _306  and  _307
REMARK  127  A    between atoms: _307  and  _308
REMARK  128  A    between atoms: _312  and  _314
REMARK  129  A    between atoms: _314  and  _315
REMARK  130  A    between atoms: _314  and  _317
REMARK  131  A    between atoms: _317  and  _318
REMARK  132  A    between atoms: _320  and  _322
REMARK  133  A    between atoms: _322  and  _323
REMARK  134  A    between atoms: _326  and  _328
REMARK  135  A    between atoms: _328  and  _329
REMARK  136  A    between atoms: _328  and  _331
REMARK  137  A    between atoms: _331  and  _332
REMARK  138  A    between atoms: _335  and  _337
REMARK  139  A    between atoms: _337  and  _338
REMARK  140  A    between atoms: _337  and  _340
REMARK  141  A    between atoms: _340  and  _341
REMARK  142  A    between atoms: _341  and  _342
REMARK  143  A    between atoms: _342  and  _343
REMARK  144  A    between atoms: _352  and  _354
REMARK  145  A    between atoms: _354  and  _355
REMARK  146  A    between atoms: _354  and  _357
REMARK  147  A    between atoms: _357  and  _358
REMARK  148  A    between atoms: _361  and  _363
REMARK  149  A    between atoms: _363  and  _364
REMARK  150  A    between atoms: _363  and  _366
REMARK  151  A    between atoms: _366  and  _367
REMARK  152  A    between atoms: _372  and  _374
REMARK  153  A    between atoms: _374  and  _375
REMARK  154  A    between atoms: _374  and  _377
REMARK  155  A    between atoms: _377  and  _378
REMARK  156  A    between atoms: _381  and  _383
REMARK  157  A    between atoms: _383  and  _384
REMARK  158  A    between atoms: _383  and  _386
REMARK  159  A    between atoms: _386  and  _387
REMARK  160  A    between atoms: _390  and  _392
REMARK  161  A    between atoms: _392  and  _393
REMARK  162  A    between atoms: _392  and  _395
REMARK  163  A    between atoms: _395  and  _396
REMARK  164  A    between atoms: _398  and  _400
REMARK  165  A    between atoms: _400  and  _401
REMARK  166  A    between atoms: _400  and  _403
REMARK  167  A    between atoms: _403  and  _404
REMARK  168  A    between atoms: _404  and  _405
REMARK  169  A    between atoms: _405  and  _406
REMARK  170  A    between atoms: _415  and  _417
REMARK  171  A    between atoms: _417  and  _418
REMARK  172  A    between atoms: _422  and  _423
REMARK  173  A    between atoms: _428  and  _430
REMARK  174  A    between atoms: _430  and  _431
REMARK  175  A    between atoms: _430  and  _433
REMARK  176  A    between atoms: _433  and  _434
REMARK  177  A    between atoms: _434  and  _435
REMARK  178  A    between atoms: _437  and  _439
REMARK  179  A    between atoms: _439  and  _440
REMARK  180  A    between atoms: _439  and  _442
REMARK  181  A    between atoms: _442  and  _443
REMARK  182  A    between atoms: _446  and  _448
REMARK  183  A    between atoms: _448  and  _449
REMARK  184  A    between atoms: _448  and  _451
REMARK  185  A    between atoms: _451  and  _452
REMARK  186  A    between atoms: _455  and  _457
REMARK  187  A    between atoms: _457  and  _458
REMARK  188  A    between atoms: _457  and  _460
REMARK  189  A    between atoms: _460  and  _461
REMARK  190  A    between atoms: _461  and  _462
REMARK  191  A    between atoms: _465  and  _467
REMARK  192  A    between atoms: _467  and  _468
REMARK  193  A    between atoms: _467  and  _470
REMARK  194  A    between atoms: _470  and  _471
REMARK  195  A    between atoms: _471  and  _472
REMARK  196  A    between atoms: _475  and  _477
REMARK  197  A    between atoms: _477  and  _478
REMARK  198  A    between atoms: _477  and  _480
REMARK  199  A    between atoms: _480  and  _481
REMARK  200  A    between atoms: _484  and  _486
REMARK  201  A    between atoms: _486  and  _487
REMARK  202  A    between atoms: _486  and  _489
REMARK  203  A    between atoms: _492  and  _494
REMARK  204  A    between atoms: _494  and  _495
REMARK  205  A    between atoms: _494  and  _497
REMARK  206  A    between atoms: _497  and  _498
REMARK  207  A    between atoms: _498  and  _499
REMARK  208  A    between atoms: _499  and  _500
REMARK  209  A    between atoms: _500  and  _501
REMARK  210  A    between atoms: _505  and  _507
REMARK  211  A    between atoms: _507  and  _508
REMARK  212  A    between atoms: _507  and  _510
REMARK  213  A    between atoms: _510  and  _511
REMARK  214  A    between atoms: _511  and  _512
REMARK  215  A    between atoms: _515  and  _517
REMARK  216  A    between atoms: _517  and  _518
REMARK  217  A    between atoms: _517  and  _520
REMARK  218  A    between atoms: _520  and  _521
REMARK  219  A    between atoms: _523  and  _525
REMARK  220  A    between atoms: _525  and  _526
REMARK  221  A    between atoms: _525  and  _528
REMARK  222  A    between atoms: _528  and  _529
REMARK  223  A    between atoms: _529  and  _530
REMARK  224  A    between atoms: _530  and  _531
REMARK  225  A    between atoms: _540  and  _542
REMARK  226  A    between atoms: _542  and  _543
REMARK  227  A    between atoms: _542  and  _545
REMARK  228  A    between atoms: _545  and  _546
REMARK  229  A    between atoms: _549  and  _551
REMARK  230  A    between atoms: _551  and  _552
REMARK  231  A    between atoms: _551  and  _554
REMARK  232  A    between atoms: _554  and  _555
REMARK  233  A    between atoms: _560  and  _562
REMARK  234  A    between atoms: _562  and  _563
REMARK  235  A    between atoms: _562  and  _565
REMARK  236  A    between atoms: _565  and  _566
REMARK  237  A    between atoms: _566  and  _567
REMARK  238  A    between atoms: _567  and  _568
REMARK  239  A    between atoms: _577  and  _579
REMARK  240  A    between atoms: _579  and  _580
REMARK  241  A    between atoms: _579  and  _582
REMARK  242  A    between atoms: _582  and  _583
REMARK  243  A    between atoms: _586  and  _588
REMARK  244  A    between atoms: _588  and  _589
REMARK  245  A    between atoms: _588  and  _591
REMARK  246  A    between atoms: _591  and  _592
REMARK  247  A    between atoms: _595  and  _597
REMARK  248  A    between atoms: _597  and  _598
REMARK  249  A    between atoms: _597  and  _600
REMARK  250  A    between atoms: _600  and  _601
REMARK                            x       y       z     vdW  Elec       q    Type
REMARK                         _______ _______ _______ _____ _____    ______ ____
ROOT
ATOM      1  NE  ARG A   1    -129.983  38.771 129.317  0.00  0.00    -0.265 N 
ATOM      2  CZ  ARG A   1    -130.261  38.102 130.442  0.00  0.00    +0.342 C 
ATOM      3  NH2 ARG A   1    -129.344  37.971 131.394  0.00  0.00    -0.292 N 
ATOM      4 HH21 ARG A   1    -129.569  37.449 132.265  0.00  0.00    +0.255 HD
ATOM      5 HH22 ARG A   1    -128.401  38.390 131.268  0.00  0.00    +0.255 HD
ATOM      6  NH1 ARG A   1    -131.488  37.603 130.640  0.00  0.00    -0.292 N 
ATOM      7 HH11 ARG A   1    -131.703  37.083 131.515  0.00  0.00    +0.255 HD
ATOM      8 HH12 ARG A   1    -132.226  37.735 129.919  0.00  0.00    +0.255 HD
ATOM      9  HE  ARG A   1    -130.728  38.830 128.594  0.00  0.00    +0.259 HD
ENDROOT
BRANCH   1  10
ATOM     10  CD  ARG A   1    -128.699  39.429 129.030  0.00  0.00    +0.174 C 
BRANCH  10  11
ATOM     11  CG  ARG A   1    -128.609  40.807 129.712  0.00  0.00    +0.045 C 
BRANCH  11  12
ATOM     12  CB  ARG A   1    -129.828  41.714 129.351  0.00  0.00    +0.029 C 
BRANCH  12  13
ATOM     13  CA  ARG A   1    -129.969  42.093 127.855  0.00  0.00    +0.133 C 
BRANCH  13  14
ATOM     14  N   ARG A   1    -128.727  42.718 127.393  0.00  0.00    -0.239 NA
ATOM     15  H   ARG A   1    -128.407  43.609 127.824  0.00  0.00    +0.142 HD
ENDBRANCH  13  14
BRANCH  13  16
ATOM     16  C   ARG A   1    -131.223  42.959 127.679  0.00  0.00    +0.224 C 
ATOM     17  O   ARG A   1    -132.342  42.494 127.921  0.00  0.00    -0.287 OA
ENDBRANCH  13  16
ENDBRANCH  12  13
ENDBRANCH  11  12
ENDBRANCH  10  11
ENDBRANCH   1  10
TORSDOF 6
REMARK  Name = ../refined-set-2016/2pqb/2pqb_pocket.pdb
REMARK  250 active torsions:
REMARK  status: ('A' for Active; 'I' for Inactive)
REMARK    1  A    between atoms: _1  and  _3
REMARK    2  A    between atoms: _3  and  _4
REMARK    3  A    between atoms: _3  and  _6
REMARK    4  A    between atoms: _6  and  _7
REMARK    5  A    between atoms: _10  and  _12
REMARK    6  A    between atoms: _12  and  _13
REMARK    7  A    between atoms: _12  and  _15
REMARK    8  A    between atoms: _15  and  _16
REMARK    9  A    between atoms: _16  and  _17
REMARK   10  A    between atoms: _17  and  _18
REMARK   11  A    between atoms: _18  and  _19
REMARK   12  A    between atoms: _23  and  _25
REMARK   13  A    between atoms: _25  and  _26
REMARK   14  A    between atoms: _25  and  _28
REMARK   15  A    between atoms: _28  and  _29
REMARK   16  A    between atoms: _31  and  _33
REMARK   17  A    between atoms: _33  and  _34
REMARK   18  A    between atoms: _33  and  _36
REMARK   19  A    between atoms: _36  and  _37
REMARK   20  A    between atoms: _40  and  _42
REMARK   21  A    between atoms: _42  and  _43
REMARK   22  A    between atoms: _42  and  _45
REMARK   23  A    between atoms: _45  and  _46
REMARK   24  A    between atoms: _48  and  _50
REMARK   25  A    between atoms: _50  and  _51
REMARK   26  A    between atoms: _50  and  _53
REMARK   27  A    between atoms: _53  and  _54
REMARK   28  A    between atoms: _59  and  _61
REMARK   29  A    between atoms: _61  and  _62
REMARK   30  A    between atoms: _61  and  _64
REMARK   31  A    between atoms: _64  and  _65
REMARK   32  A    between atoms: _65  and  _66
REMARK   33  A    between atoms: _66  and  _67
REMARK   34  A    between atoms: _76  and  _78
REMARK   35  A    between atoms: _78  and  _79
REMARK   36  A    between atoms: _78  and  _81
REMARK   37  A    between atoms: _81  and  _82
REMARK   38  A    between atoms: _85  and  _87
REMARK   39  A    between atoms: _87  and  _88
REMARK   40  A    between atoms: _87  and  _90
REMARK   41  A    between atoms: _90  and  _91
REMARK   42  A    between atoms: _94  and  _96
REMARK   43  A    between atoms: _96  and  _97
REMARK   44  A    between atoms: _96  and  _99
REMARK   45  A    between atoms: _99  and  _100
REMARK   46  A    between atoms: _106  and  _108
REMARK   47  A    between atoms: _108  and  _109
REMARK   48  A    between atoms: _108  and  _111
REMARK   49  A    between atoms: _111  and  _112
REMARK   50  A    between atoms: _117  and  _119
REMARK   51  A    between atoms: _119  and  _120
REMARK   52  A    between atoms: _123  and  _125
REMARK   53  A    between atoms: _125  and  _126
REMARK   54  A    between atoms: _129  and  _131
REMARK   55  A    between atoms: _131  and  _132
REMARK   56  A    between atoms: _131  and  _134
REMARK   57  A    between atoms: _134  and  _135
REMARK   58  A    between atoms: _138  and  _140
REMARK   59  A    between atoms: _140  and  _141
REMARK   60  A    between atoms: _143  and  _145
REMARK   61  A    between atoms: _145  and  _146
REMARK   62  A    between atoms: _145  and  _148
REMARK   63  A    between atoms: _150  and  _152
REMARK   64  A    between atoms: _152  and  _153
REMARK   65  A    between atoms: _152  and  _155
REMARK   66  A    between atoms: _155  and  _156
REMARK   67  A    between atoms: _156  and  _157
REMARK   68  A    between atoms: _157  and  _158
REMARK   69  A    between atoms: _167  and  _169
REMARK   70  A    between atoms: _169  and  _170
REMARK   71  A    between atoms: _169  and  _172
REMARK   72  A    between atoms: _172  and  _173
REMARK   73  A    between atoms: _176  and  _178
REMARK   74  A    between atoms: _178  and  _179
REMARK   75  A    between atoms: _178  and  _181
REMARK   76  A    between atoms: _181  and  _182
REMARK   77  A    between atoms: _184  and  _186
REMARK   78  A    between atoms: _186  and  _187
REMARK   79  A    between atoms: _186  and  _189
REMARK   80  A    between atoms: _189  and  _190
REMARK   81  A    between atoms: _193  and  _195
REMARK   82  A    between atoms: _195  and  _196
REMARK   83  A    between atoms: _195  and  _198
REMARK   84  A    between atoms: _198  and  _199
REMARK   85  A    between atoms: _199  and  _200
REMARK   86  A    between atoms: _200  and  _201
REMARK   87  A    between atoms: _211  and  _212
REMARK   88  A    between atoms: _217  and  _219
REMARK   89  A    between atoms: _219  and  _220
REMARK   90  A    between atoms: _219  and  _222
REMARK   91  A    between atoms: _222  and  _223
REMARK   92  A    between atoms: _223  and  _224
REMARK   93  A    between atoms: _224  and  _225
REMARK   94  A    between atoms: _234  and  _236
REMARK   95  A    between atoms: _236  and  _237
REMARK   96  A    between atoms: _236  and  _239
REMARK   97  A    between atoms: _242  and  _244
REMARK   98  A    between atoms: _244  and  _245
REMARK   99  A    between atoms: _244  and  _247
REMARK  100  A    between atoms: _250  and  _252
REMARK  101  A    between atoms: _252  and  _253
REMARK  102  A    between atoms: _252  and  _255
REMARK  103  A    between atoms: _255  and  _256
REMARK  104  A    between atoms: _256  and  _257
REMARK  105  A    between atoms: _259  and  _261
REMARK  106  A    between atoms: _261  and  _262
REMARK  107  A    between atoms: _265  and  _267
REMARK  108  A    between atoms: _267  and  _268
REMARK  109  A    between atoms: _267  and  _270
REMARK  110  A    between atoms: _270  and  _271
REMARK  111  A    between atoms: _273  and  _275
REMARK  112  A    between atoms: _275  and  _276
REMARK  113  A    between atoms: _279  and  _281
REMARK  114  A    between atoms: _281  and  _282
REMARK  115  A    between atoms: _281  and  _284
REMARK  116  A    between atoms: _284  and  _285
REMARK  117  A    between atoms: _285  and  _286
REMARK  118  A    between atoms: _291  and  _293
REMARK  119  A    between atoms: _293  and  _294
REMARK  120  A    between atoms: _293  and  _296
REMARK  121  A    between atoms: _299  and  _301
REMARK  122  A    between atoms: _301  and  _302
REMARK  123  A    between atoms: _301  and  _304
REMARK  124  A    between atoms: _304  and  _305
REMARK  125  A    between atoms: _305  and  _306
REMARK  126  A    between atoms: _306  and  _307
REMARK  127  A    between atoms: _307  and  _308
REMARK  128  A    between atoms: _312  and  _314
REMARK  129  A    between atoms: _314  and  _315
REMARK  130  A    between atoms: _314  and  _317
REMARK  131  A    between atoms: _317  and  _318
REMARK  132  A    between atoms: _320  and  _322
REMARK  133  A    between atoms: _322  and  _323
REMARK  134  A    between atoms: _326  and  _328
REMARK  135  A    between atoms: _328  and  _329
REMARK  136  A    between atoms: _328  and  _331
REMARK  137  A    between atoms: _331  and  _332
REMARK  138  A    between atoms: _335  and  _337
REMARK  139  A    between atoms: _337  and  _338
REMARK  140  A    between atoms: _337  and  _340
REMARK  141  A    between atoms: _340  and  _341
REMARK  142  A    between atoms: _341  and  _342
REMARK  143  A    between atoms: _342  and  _343
REMARK  144  A    between atoms: _352  and  _354
REMARK  145  A    between atoms: _354  and  _355
REMARK  146  A    between atoms: _354  and  _357
REMARK  147  A    between atoms: _357  and  _358
REMARK  148  A    between atoms: _361  and  _363
REMARK  149  A    between atoms: _363  and  _364
REMARK  150  A    between atoms: _363  and  _366
REMARK  151  A    between atoms: _366  and  _367
REMARK  152  A    between atoms: _372  and  _374
REMARK  153  A    between atoms: _374  and  _375
REMARK  154  A    between atoms: _374  and  _377
REMARK  155  A    between atoms: _377  and  _378
REMARK  156  A    between atoms: _381  and  _383
REMARK  157  A    between atoms: _383  and  _384
REMARK  158  A    between atoms: _383  and  _386
REMARK  159  A    between atoms: _386  and  _387
REMARK  160  A    between atoms: _390  and  _392
REMARK  161  A    between atoms: _392  and  _393
REMARK  162  A    between atoms: _392  and  _395
REMARK  163  A    between atoms: _395  and  _396
REMARK  164  A    between atoms: _398  and  _400
REMARK  165  A    between atoms: _400  and  _401
REMARK  166  A    between atoms: _400  and  _403
REMARK  167  A    between atoms: _403  and  _404
REMARK  168  A    between atoms: _404  and  _405
REMARK  169  A    between atoms: _405  and  _406
REMARK  170  A    between atoms: _415  and  _417
REMARK  171  A    between atoms: _417  and  _418
REMARK  172  A    between atoms: _422  and  _423
REMARK  173  A    between atoms: _428  and  _430
REMARK  174  A    between atoms: _430  and  _431
REMARK  175  A    between atoms: _430  and  _433
REMARK  176  A    between atoms: _433  and  _434
REMARK  177  A    between atoms: _434  and  _435
REMARK  178  A    between atoms: _437  and  _439
REMARK  179  A    between atoms: _439  and  _440
REMARK  180  A    between atoms: _439  and  _442
REMARK  181  A    between atoms: _442  and  _443
REMARK  182  A    between atoms: _446  and  _448
REMARK  183  A    between atoms: _448  and  _449
REMARK  184  A    between atoms: _448  and  _451
REMARK  185  A    between atoms: _451  and  _452
REMARK  186  A    between atoms: _455  and  _457
REMARK  187  A    between atoms: _457  and  _458
REMARK  188  A    between atoms: _457  and  _460
REMARK  189  A    between atoms: _460  and  _461
REMARK  190  A    between atoms: _461  and  _462
REMARK  191  A    between atoms: _465  and  _467
REMARK  192  A    between atoms: _467  and  _468
REMARK  193  A    between atoms: _467  and  _470
REMARK  194  A    between atoms: _470  and  _471
REMARK  195  A    between atoms: _471  and  _472
REMARK  196  A    between atoms: _475  and  _477
REMARK  197  A    between atoms: _477  and  _478
REMARK  198  A    between atoms: _477  and  _480
REMARK  199  A    between atoms: _480  and  _481
REMARK  200  A    between atoms: _484  and  _486
REMARK  201  A    between atoms: _486  and  _487
REMARK  202  A    between atoms: _486  and  _489
REMARK  203  A    between atoms: _492  and  _494
REMARK  204  A    between atoms: _494  and  _495
REMARK  205  A    between atoms: _494  and  _497
REMARK  206  A    between atoms: _497  and  _498
REMARK  207  A    between atoms: _498  and  _499
REMARK  208  A    between atoms: _499  and  _500
REMARK  209  A    between atoms: _500  and  _501
REMARK  210  A    between atoms: _505  and  _507
REMARK  211  A    between atoms: _507  and  _508
REMARK  212  A    between atoms: _507  and  _510
REMARK  213  A    between atoms: _510  and  _511
REMARK  214  A    between atoms: _511  and  _512
REMARK  215  A    between atoms: _515  and  _517
REMARK  216  A    between atoms: _517  and  _518
REMARK  217  A    between atoms: _517  and  _520
REMARK  218  A    between atoms: _520  and  _521
REMARK  219  A    between atoms: _523  and  _525
REMARK  220  A    between atoms: _525  and  _526
REMARK  221  A    between atoms: _525  and  _528
REMARK  222  A    between atoms: _528  and  _529
REMARK  223  A    between atoms: _529  and  _530
REMARK  224  A    between atoms: _530  and  _531
REMARK  225  A    between atoms: _540  and  _542
REMARK  226  A    between atoms: _542  and  _543
REMARK  227  A    between atoms: _542  and  _545
REMARK  228  A    between atoms: _545  and  _546
REMARK  229  A    between atoms: _549  and  _551
REMARK  230  A    between atoms: _551  and  _552
REMARK  231  A    between atoms: _551  and  _554
REMARK  232  A    between atoms: _554  and  _555
REMARK  233  A    between atoms: _560  and  _562
REMARK  234  A    between atoms: _562  and  _563
REMARK  235  A    between atoms: _562  and  _565
REMARK  236  A    between atoms: _565  and  _566
REMARK  237  A    between atoms: _566  and  _567
REMARK  238  A    between atoms: _567  and  _568
REMARK  239  A    between atoms: _577  and  _579
REMARK  240  A    between atoms: _579  and  _580
REMARK  241  A    between atoms: _579  and  _582
REMARK  242  A    between atoms: _582  and  _583
REMARK  243  A    between atoms: _586  and  _588
REMARK  244  A    between atoms: _588  and  _589
REMARK  245  A    between atoms: _588  and  _591
REMARK  246  A    between atoms: _591  and  _592
REMARK  247  A    between atoms: _595  and  _597
REMARK  248  A    between atoms: _597  and  _598
REMARK  249  A    between atoms: _597  and  _600
REMARK  250  A    between atoms: _600  and  _601
REMARK                            x       y       z     vdW  Elec       q    Type
REMARK                         _______ _______ _______ _____ _____    ______ ____
ROOT
ATOM      1  C   ALA A   1    -130.645  39.418 119.156  0.00  0.00    +0.241 C 
ATOM      2  O   ALA A   1    -131.296  38.990 120.108  0.00  0.00    -0.273 OA
ATOM      3  N   PRO A   2    -129.296  39.419 119.160  0.00  0.00    -0.273 N 
ATOM      4  CA  PRO A   2    -128.558  38.877 120.312  0.00  0.00    +0.140 C 
ATOM      5  CB  PRO A   2    -127.089  39.140 119.952  0.00  0.00    +0.030 C 
ATOM      6  CG  PRO A   2    -127.100  39.087 118.438  0.00  0.00    +0.024 C 
ATOM      7  CD  PRO A   2    -128.368  39.866 118.108  0.00  0.00    +0.094 C 
ENDROOT
BRANCH   1   8
ATOM      8  CA  ALA A   1    -131.377  39.982 117.937  0.00  0.00    +0.145 C 
ATOM      9  CB  ALA A   1    -131.383  38.949 116.804  0.00  0.00    +0.028 C 
BRANCH   8  10
ATOM     10  N   ALA A   1    -130.971  41.292 117.429  0.00  0.00    -0.238 NA
ATOM     11  H   ALA A   1    -130.768  41.410 116.416  0.00  0.00    +0.142 HD
ENDBRANCH   8  10
ENDBRANCH   1   8
BRANCH   4  12
ATOM     12  C   PRO A   2    -128.916  39.495 121.653  0.00  0.00    +0.227 C 
ATOM     13  O   PRO A   2    -128.906  38.798 122.666  0.00  0.00    -0.286 OA
ENDBRANCH   4  12
TORSDOF 3
REMARK  Name = ../refined-set-2016/2pqb/2pqb_pocket.pdb
REMARK  250 active torsions:
REMARK  status: ('A' for Active; 'I' for Inactive)
REMARK    1  A    between atoms: _1  and  _3
REMARK    2  A    between atoms: _3  and  _4
REMARK    3  A    between atoms: _3  and  _6
REMARK    4  A    between atoms: _6  and  _7
REMARK    5  A    between atoms: _10  and  _12
REMARK    6  A    between atoms: _12  and  _13
REMARK    7  A    between atoms: _12  and  _15
REMARK    8  A    between atoms: _15  and  _16
REMARK    9  A    between atoms: _16  and  _17
REMARK   10  A    between atoms: _17  and  _18
REMARK   11  A    between atoms: _18  and  _19
REMARK   12  A    between atoms: _23  and  _25
REMARK   13  A    between atoms: _25  and  _26
REMARK   14  A    between atoms: _25  and  _28
REMARK   15  A    between atoms: _28  and  _29
REMARK   16  A    between atoms: _31  and  _33
REMARK   17  A    between atoms: _33  and  _34
REMARK   18  A    between atoms: _33  and  _36
REMARK   19  A    between atoms: _36  and  _37
REMARK   20  A    between atoms: _40  and  _42
REMARK   21  A    between atoms: _42  and  _43
REMARK   22  A    between atoms: _42  and  _45
REMARK   23  A    between atoms: _45  and  _46
REMARK   24  A    between atoms: _48  and  _50
REMARK   25  A    between atoms: _50  and  _51
REMARK   26  A    between atoms: _50  and  _53
REMARK   27  A    between atoms: _53  and  _54
REMARK   28  A    between atoms: _59  and  _61
REMARK   29  A    between atoms: _61  and  _62
REMARK   30  A    between atoms: _61  and  _64
REMARK   31  A    between atoms: _64  and  _65
REMARK   32  A    between atoms: _65  and  _66
REMARK   33  A    between atoms: _66  and  _67
REMARK   34  A    between atoms: _76  and  _78
REMARK   35  A    between atoms: _78  and  _79
REMARK   36  A    between atoms: _78  and  _81
REMARK   37  A    between atoms: _81  and  _82
REMARK   38  A    between atoms: _85  and  _87
REMARK   39  A    between atoms: _87  and  _88
REMARK   40  A    between atoms: _87  and  _90
REMARK   41  A    between atoms: _90  and  _91
REMARK   42  A    between atoms: _94  and  _96
REMARK   43  A    between atoms: _96  and  _97
REMARK   44  A    between atoms: _96  and  _99
REMARK   45  A    between atoms: _99  and  _100
REMARK   46  A    between atoms: _106  and  _108
REMARK   47  A    between atoms: _108  and  _109
REMARK   48  A    between atoms: _108  and  _111
REMARK   49  A    between atoms: _111  and  _112
REMARK   50  A    between atoms: _117  and  _119
REMARK   51  A    between atoms: _119  and  _120
REMARK   52  A    between atoms: _123  and  _125
REMARK   53  A    between atoms: _125  and  _126
REMARK   54  A    between atoms: _129  and  _131
REMARK   55  A    between atoms: _131  and  _132
REMARK   56  A    between atoms: _131  and  _134
REMARK   57  A    between atoms: _134  and  _135
REMARK   58  A    between atoms: _138  and  _140
REMARK   59  A    between atoms: _140  and  _141
REMARK   60  A    between atoms: _143  and  _145
REMARK   61  A    between atoms: _145  and  _146
REMARK   62  A    between atoms: _145  and  _148
REMARK   63  A    between atoms: _150  and  _152
REMARK   64  A    between atoms: _152  and  _153
REMARK   65  A    between atoms: _152  and  _155
REMARK   66  A    between atoms: _155  and  _156
REMARK   67  A    between atoms: _156  and  _157
REMARK   68  A    between atoms: _157  and  _158
REMARK   69  A    between atoms: _167  and  _169
REMARK   70  A    between atoms: _169  and  _170
REMARK   71  A    between atoms: _169  and  _172
REMARK   72  A    between atoms: _172  and  _173
REMARK   73  A    between atoms: _176  and  _178
REMARK   74  A    between atoms: _178  and  _179
REMARK   75  A    between atoms: _178  and  _181
REMARK   76  A    between atoms: _181  and  _182
REMARK   77  A    between atoms: _184  and  _186
REMARK   78  A    between atoms: _186  and  _187
REMARK   79  A    between atoms: _186  and  _189
REMARK   80  A    between atoms: _189  and  _190
REMARK   81  A    between atoms: _193  and  _195
REMARK   82  A    between atoms: _195  and  _196
REMARK   83  A    between atoms: _195  and  _198
REMARK   84  A    between atoms: _198  and  _199
REMARK   85  A    between atoms: _199  and  _200
REMARK   86  A    between atoms: _200  and  _201
REMARK   87  A    between atoms: _211  and  _212
REMARK   88  A    between atoms: _217  and  _219
REMARK   89  A    between atoms: _219  and  _220
REMARK   90  A    between atoms: _219  and  _222
REMARK   91  A    between atoms: _222  and  _223
REMARK   92  A    between atoms: _223  and  _224
REMARK   93  A    between atoms: _224  and  _225
REMARK   94  A    between atoms: _234  and  _236
REMARK   95  A    between atoms: _236  and  _237
REMARK   96  A    between atoms: _236  and  _239
REMARK   97  A    between atoms: _242  and  _244
REMARK   98  A    between atoms: _244  and  _245
REMARK   99  A    between atoms: _244  and  _247
REMARK  100  A    between atoms: _250  and  _252
REMARK  101  A    between atoms: _252  and  _253
REMARK  102  A    between atoms: _252  and  _255
REMARK  103  A    between atoms: _255  and  _256
REMARK  104  A    between atoms: _256  and  _257
REMARK  105  A    between atoms: _259  and  _261
REMARK  106  A    between atoms: _261  and  _262
REMARK  107  A    between atoms: _265  and  _267
REMARK  108  A    between atoms: _267  and  _268
REMARK  109  A    between atoms: _267  and  _270
REMARK  110  A    between atoms: _270  and  _271
REMARK  111  A    between atoms: _273  and  _275
REMARK  112  A    between atoms: _275  and  _276
REMARK  113  A    between atoms: _279  and  _281
REMARK  114  A    between atoms: _281  and  _282
REMARK  115  A    between atoms: _281  and  _284
REMARK  116  A    between atoms: _284  and  _285
REMARK  117  A    between atoms: _285  and  _286
REMARK  118  A    between atoms: _291  and  _293
REMARK  119  A    between atoms: _293  and  _294
REMARK  120  A    between atoms: _293  and  _296
REMARK  121  A    between atoms: _299  and  _301
REMARK  122  A    between atoms: _301  and  _302
REMARK  123  A    between atoms: _301  and  _304
REMARK  124  A    between atoms: _304  and  _305
REMARK  125  A    between atoms: _305  and  _306
REMARK  126  A    between atoms: _306  and  _307
REMARK  127  A    between atoms: _307  and  _308
REMARK  128  A    between atoms: _312  and  _314
REMARK  129  A    between atoms: _314  and  _315
REMARK  130  A    between atoms: _314  and  _317
REMARK  131  A    between atoms: _317  and  _318
REMARK  132  A    between atoms: _320  and  _322
REMARK  133  A    between atoms: _322  and  _323
REMARK  134  A    between atoms: _326  and  _328
REMARK  135  A    between atoms: _328  and  _329
REMARK  136  A    between atoms: _328  and  _331
REMARK  137  A    between atoms: _331  and  _332
REMARK  138  A    between atoms: _335  and  _337
REMARK  139  A    between atoms: _337  and  _338
REMARK  140  A    between atoms: _337  and  _340
REMARK  141  A    between atoms: _340  and  _341
REMARK  142  A    between atoms: _341  and  _342
REMARK  143  A    between atoms: _342  and  _343
REMARK  144  A    between atoms: _352  and  _354
REMARK  145  A    between atoms: _354  and  _355
REMARK  146  A    between atoms: _354  and  _357
REMARK  147  A    between atoms: _357  and  _358
REMARK  148  A    between atoms: _361  and  _363
REMARK  149  A    between atoms: _363  and  _364
REMARK  150  A    between atoms: _363  and  _366
REMARK  151  A    between atoms: _366  and  _367
REMARK  152  A    between atoms: _372  and  _374
REMARK  153  A    between atoms: _374  and  _375
REMARK  154  A    between atoms: _374  and  _377
REMARK  155  A    between atoms: _377  and  _378
REMARK  156  A    between atoms: _381  and  _383
REMARK  157  A    between atoms: _383  and  _384
REMARK  158  A    between atoms: _383  and  _386
REMARK  159  A    between atoms: _386  and  _387
REMARK  160  A    between atoms: _390  and  _392
REMARK  161  A    between atoms: _392  and  _393
REMARK  162  A    between atoms: _392  and  _395
REMARK  163  A    between atoms: _395  and  _396
REMARK  164  A    between atoms: _398  and  _400
REMARK  165  A    between atoms: _400  and  _401
REMARK  166  A    between atoms: _400  and  _403
REMARK  167  A    between atoms: _403  and  _404
REMARK  168  A    between atoms: _404  and  _405
REMARK  169  A    between atoms: _405  and  _406
REMARK  170  A    between atoms: _415  and  _417
REMARK  171  A    between atoms: _417  and  _418
REMARK  172  A    between atoms: _422  and  _423
REMARK  173  A    between atoms: _428  and  _430
REMARK  174  A    between atoms: _430  and  _431
REMARK  175  A    between atoms: _430  and  _433
REMARK  176  A    between atoms: _433  and  _434
REMARK  177  A    between atoms: _434  and  _435
REMARK  178  A    between atoms: _437  and  _439
REMARK  179  A    between atoms: _439  and  _440
REMARK  180  A    between atoms: _439  and  _442
REMARK  181  A    between atoms: _442  and  _443
REMARK  182  A    between atoms: _446  and  _448
REMARK  183  A    between atoms: _448  and  _449
REMARK  184  A    between atoms: _448  and  _451
REMARK  185  A    between atoms: _451  and  _452
REMARK  186  A    between atoms: _455  and  _457
REMARK  187  A    between atoms: _457  and  _458
REMARK  188  A    between atoms: _457  and  _460
REMARK  189  A    between atoms: _460  and  _461
REMARK  190  A    between atoms: _461  and  _462
REMARK  191  A    between atoms: _465  and  _467
REMARK  192  A    between atoms: _467  and  _468
REMARK  193  A    between atoms: _467  and  _470
REMARK  194  A    between atoms: _470  and  _471
REMARK  195  A    between atoms: _471  and  _472
REMARK  196  A    between atoms: _475  and  _477
REMARK  197  A    between atoms: _477  and  _478
REMARK  198  A    between atoms: _477  and  _480
REMARK  199  A    between atoms: _480  and  _481
REMARK  200  A    between atoms: _484  and  _486
REMARK  201  A    between atoms: _486  and  _487
REMARK  202  A    between atoms: _486  and  _489
REMARK  203  A    between atoms: _492  and  _494
REMARK  204  A    between atoms: _494  and  _495
REMARK  205  A    between atoms: _494  and  _497
REMARK  206  A    between atoms: _497  and  _498
REMARK  207  A    between atoms: _498  and  _499
REMARK  208  A    between atoms: _499  and  _500
REMARK  209  A    between atoms: _500  and  _501
REMARK  210  A    between atoms: _505  and  _507
REMARK  211  A    between atoms: _507  and  _508
REMARK  212  A    between atoms: _507  and  _510
REMARK  213  A    between atoms: _510  and  _511
REMARK  214  A    between atoms: _511  and  _512
REMARK  215  A    between atoms: _515  and  _517
REMARK  216  A    between atoms: _517  and  _518
REMARK  217  A    between atoms: _517  and  _520
REMARK  218  A    between atoms: _520  and  _521
REMARK  219  A    between atoms: _523  and  _525
REMARK  220  A    between atoms: _525  and  _526
REMARK  221  A    between atoms: _525  and  _528
REMARK  222  A    between atoms: _528  and  _529
REMARK  223  A    between atoms: _529  and  _530
REMARK  224  A    between atoms: _530  and  _531
REMARK  225  A    between atoms: _540  and  _542
REMARK  226  A    between atoms: _542  and  _543
REMARK  227  A    between atoms: _542  and  _545
REMARK  228  A    between atoms: _545  and  _546
REMARK  229  A    between atoms: _549  and  _551
REMARK  230  A    between atoms: _551  and  _552
REMARK  231  A    between atoms: _551  and  _554
REMARK  232  A    between atoms: _554  and  _555
REMARK  233  A    between atoms: _560  and  _562
REMARK  234  A    between atoms: _562  and  _563
REMARK  235  A    between atoms: _562  and  _565
REMARK  236  A    between atoms: _565  and  _566
REMARK  237  A    between atoms: _566  and  _567
REMARK  238  A    between atoms: _567  and  _568
REMARK  239  A    between atoms: _577  and  _579
REMARK  240  A    between atoms: _579  and  _580
REMARK  241  A    between atoms: _579  and  _582
REMARK  242  A    between atoms: _582  and  _583
REMARK  243  A    between atoms: _586  and  _588
REMARK  244  A    between atoms: _588  and  _589
REMARK  245  A    between atoms: _588  and  _591
REMARK  246  A    between atoms: _591  and  _592
REMARK  247  A    between atoms: _595  and  _597
REMARK  248  A    between atoms: _597  and  _598
REMARK  249  A    between atoms: _597  and  _600
REMARK  250  A    between atoms: _600  and  _601
REMARK                            x       y       z     vdW  Elec       q    Type
REMARK                         _______ _______ _______ _____ _____    ______ ____
ROOT
ATOM      1  C   ILE A   2    -134.276  35.907 122.371  0.00  0.00    +0.241 C 
ATOM      2  N   ASP A   3    -134.249  35.913 123.703  0.00  0.00    -0.297 N 
ATOM      3  H   ASP A   3    -133.491  36.426 124.197  0.00  0.00    +0.150 HD
ATOM      4  O   ILE A   2    -135.179  35.345 121.732  0.00  0.00    -0.273 OA
ENDROOT
BRANCH   2   5
ATOM      5  CA  ASP A   3    -135.267  35.210 124.481  0.00  0.00    +0.160 C 
BRANCH   5   6
ATOM      6  C   ASP A   3    -136.579  35.988 124.654  0.00  0.00    +0.241 C 
ATOM      7  O   ASP A   3    -137.571  35.445 125.139  0.00  0.00    -0.273 OA
ATOM      8  N   GLU A   4    -136.581  37.255 124.278  0.00  0.00    -0.298 N 
ATOM      9  H   GLU A   4    -135.714  37.689 123.901  0.00  0.00    +0.150 HD
BRANCH   8  10
ATOM     10  CA  GLU A   4    -137.803  38.042 124.394  0.00  0.00    +0.137 C 
BRANCH  10  11
ATOM     11  C   GLU A   4    -138.620  38.137 123.092  0.00  0.00    +0.227 C 
ATOM     12  O   GLU A   4    -139.585  38.896 123.033  0.00  0.00    -0.286 OA
ENDBRANCH  10  11
BRANCH  10  13
ATOM     13  CB  GLU A   4    -137.478  39.456 124.915  0.00  0.00    +0.039 C 
BRANCH  13  14
ATOM     14  CG  GLU A   4    -137.131  39.525 126.435  0.00  0.00    +0.116 C 
BRANCH  14  15
ATOM     15  CD  GLU A   4    -135.825  38.818 126.802  0.00  0.00    +0.365 C 
ATOM     16  OE2 GLU A   4    -135.860  37.688 127.348  0.00  0.00    -0.246 OA
ATOM     17  OE1 GLU A   4    -134.745  39.390 126.535  0.00  0.00    -0.246 OA
ENDBRANCH  14  15
ENDBRANCH  13  14
ENDBRANCH  10  13
ENDBRANCH   8  10
ENDBRANCH   5   6
BRANCH   5  18
ATOM     18  CB  ASP A   3    -134.709  34.842 125.856  0.00  0.00    +0.143 C 
BRANCH  18  19
ATOM     19  CG  ASP A   3    -133.435  34.016 125.745  0.00  0.00    +0.367 C 
ATOM     20  OD2 ASP A   3    -132.481  34.242 126.526  0.00  0.00    -0.246 OA
ATOM     21  OD1 ASP A   3    -133.408  33.129 124.855  0.00  0.00    -0.246 OA
ENDBRANCH  18  19
ENDBRANCH   5  18
ENDBRANCH   2   5
BRANCH   1  22
ATOM     22  CA  ILE A   2    -133.167  36.670 121.636  0.00  0.00    +0.148 C 
BRANCH  22  25
ATOM     23  C   MET A   1    -133.677  38.880 122.529  0.00  0.00    +0.238 C 
ATOM     24  O   MET A   1    -134.896  38.677 122.423  0.00  0.00    -0.274 OA
ATOM     25  N   ILE A   2    -132.772  37.957 122.228  0.00  0.00    -0.297 N 
ATOM     26  H   ILE A   2    -131.767  38.147 122.414  0.00  0.00    +0.150 HD
BRANCH  23  27
ATOM     27  CA  MET A   1    -133.157  40.213 123.064  0.00  0.00    +0.146 C 
BRANCH  27  28
ATOM     28  N   MET A   1    -131.763  40.460 122.697  0.00  0.00    -0.238 NA
ATOM     29  H   MET A   1    -131.356  39.955 121.884  0.00  0.00    +0.142 HD
ENDBRANCH  27  28
BRANCH  27  30
ATOM     30  CB  MET A   1    -134.026  41.340 122.498  0.00  0.00    +0.038 C 
BRANCH  30  31
ATOM     31  CG  MET A   1    -133.978  41.436 120.949  0.00  0.00    +0.060 C 
BRANCH  31  32
ATOM     32  SD  MET A   1    -134.899  42.886 120.270  0.00  0.00    -0.139 S 
ATOM     33  CE  MET A   1    -136.548  42.408 120.594  0.00  0.00    +0.069 C 
ENDBRANCH  31  32
ENDBRANCH  30  31
ENDBRANCH  27  30
ENDBRANCH  23  27
ENDBRANCH  22  25
BRANCH  22  34
ATOM     34  CB  ILE A   2    -131.889  35.758 121.410  0.00  0.00    +0.027 C 
ATOM     35  CG2 ILE A   2    -131.379  35.196 122.722  0.00  0.00    +0.002 C 
BRANCH  34  36
ATOM     36  CG1 ILE A   2    -132.213  34.623 120.436  0.00  0.00    +0.002 C 
ATOM     37  CD1 ILE A   2    -132.515  35.125 119.022  0.00  0.00    +0.000 C 
ENDBRANCH  34  36
ENDBRANCH  22  34
ENDBRANCH   1  22
TORSDOF 18
REMARK  Name = ../refined-set-2016/2pqb/2pqb_pocket.pdb
REMARK  250 active torsions:
REMARK  status: ('A' for Active; 'I' for Inactive)
REMARK    1  A    between atoms: _1  and  _3
REMARK    2  A    between atoms: _3  and  _4
REMARK    3  A    between atoms: _3  and  _6
REMARK    4  A    between atoms: _6  and  _7
REMARK    5  A    between atoms: _10  and  _12
REMARK    6  A    between atoms: _12  and  _13
REMARK    7  A    between atoms: _12  and  _15
REMARK    8  A    between atoms: _15  and  _16
REMARK    9  A    between atoms: _16  and  _17
REMARK   10  A    between atoms: _17  and  _18
REMARK   11  A    between atoms: _18  and  _19
REMARK   12  A    between atoms: _23  and  _25
REMARK   13  A    between atoms: _25  and  _26
REMARK   14  A    between atoms: _25  and  _28
REMARK   15  A    between atoms: _28  and  _29
REMARK   16  A    between atoms: _31  and  _33
REMARK   17  A    between atoms: _33  and  _34
REMARK   18  A    between atoms: _33  and  _36
REMARK   19  A    between atoms: _36  and  _37
REMARK   20  A    between atoms: _40  and  _42
REMARK   21  A    between atoms: _42  and  _43
REMARK   22  A    between atoms: _42  and  _45
REMARK   23  A    between atoms: _45  and  _46
REMARK   24  A    between atoms: _48  and  _50
REMARK   25  A    between atoms: _50  and  _51
REMARK   26  A    between atoms: _50  and  _53
REMARK   27  A    between atoms: _53  and  _54
REMARK   28  A    between atoms: _59  and  _61
REMARK   29  A    between atoms: _61  and  _62
REMARK   30  A    between atoms: _61  and  _64
REMARK   31  A    between atoms: _64  and  _65
REMARK   32  A    between atoms: _65  and  _66
REMARK   33  A    between atoms: _66  and  _67
REMARK   34  A    between atoms: _76  and  _78
REMARK   35  A    between atoms: _78  and  _79
REMARK   36  A    between atoms: _78  and  _81
REMARK   37  A    between atoms: _81  and  _82
REMARK   38  A    between atoms: _85  and  _87
REMARK   39  A    between atoms: _87  and  _88
REMARK   40  A    between atoms: _87  and  _90
REMARK   41  A    between atoms: _90  and  _91
REMARK   42  A    between atoms: _94  and  _96
REMARK   43  A    between atoms: _96  and  _97
REMARK   44  A    between atoms: _96  and  _99
REMARK   45  A    between atoms: _99  and  _100
REMARK   46  A    between atoms: _106  and  _108
REMARK   47  A    between atoms: _108  and  _109
REMARK   48  A    between atoms: _108  and  _111
REMARK   49  A    between atoms: _111  and  _112
REMARK   50  A    between atoms: _117  and  _119
REMARK   51  A    between atoms: _119  and  _120
REMARK   52  A    between atoms: _123  and  _125
REMARK   53  A    between atoms: _125  and  _126
REMARK   54  A    between atoms: _129  and  _131
REMARK   55  A    between atoms: _131  and  _132
REMARK   56  A    between atoms: _131  and  _134
REMARK   57  A    between atoms: _134  and  _135
REMARK   58  A    between atoms: _138  and  _140
REMARK   59  A    between atoms: _140  and  _141
REMARK   60  A    between atoms: _143  and  _145
REMARK   61  A    between atoms: _145  and  _146
REMARK   62  A    between atoms: _145  and  _148
REMARK   63  A    between atoms: _150  and  _152
REMARK   64  A    between atoms: _152  and  _153
REMARK   65  A    between atoms: _152  and  _155
REMARK   66  A    between atoms: _155  and  _156
REMARK   67  A    between atoms: _156  and  _157
REMARK   68  A    between atoms: _157  and  _158
REMARK   69  A    between atoms: _167  and  _169
REMARK   70  A    between atoms: _169  and  _170
REMARK   71  A    between atoms: _169  and  _172
REMARK   72  A    between atoms: _172  and  _173
REMARK   73  A    between atoms: _176  and  _178
REMARK   74  A    between atoms: _178  and  _179
REMARK   75  A    between atoms: _178  and  _181
REMARK   76  A    between atoms: _181  and  _182
REMARK   77  A    between atoms: _184  and  _186
REMARK   78  A    between atoms: _186  and  _187
REMARK   79  A    between atoms: _186  and  _189
REMARK   80  A    between atoms: _189  and  _190
REMARK   81  A    between atoms: _193  and  _195
REMARK   82  A    between atoms: _195  and  _196
REMARK   83  A    between atoms: _195  and  _198
REMARK   84  A    between atoms: _198  and  _199
REMARK   85  A    between atoms: _199  and  _200
REMARK   86  A    between atoms: _200  and  _201
REMARK   87  A    between atoms: _211  and  _212
REMARK   88  A    between atoms: _217  and  _219
REMARK   89  A    between atoms: _219  and  _220
REMARK   90  A    between atoms: _219  and  _222
REMARK   91  A    between atoms: _222  and  _223
REMARK   92  A    between atoms: _223  and  _224
REMARK   93  A    between atoms: _224  and  _225
REMARK   94  A    between atoms: _234  and  _236
REMARK   95  A    between atoms: _236  and  _237
REMARK   96  A    between atoms: _236  and  _239
REMARK   97  A    between atoms: _242  and  _244
REMARK   98  A    between atoms: _244  and  _245
REMARK   99  A    between atoms: _244  and  _247
REMARK  100  A    between atoms: _250  and  _252
REMARK  101  A    between atoms: _252  and  _253
REMARK  102  A    between atoms: _252  and  _255
REMARK  103  A    between atoms: _255  and  _256
REMARK  104  A    between atoms: _256  and  _257
REMARK  105  A    between atoms: _259  and  _261
REMARK  106  A    between atoms: _261  and  _262
REMARK  107  A    between atoms: _265  and  _267
REMARK  108  A    between atoms: _267  and  _268
REMARK  109  A    between atoms: _267  and  _270
REMARK  110  A    between atoms: _270  and  _271
REMARK  111  A    between atoms: _273  and  _275
REMARK  112  A    between atoms: _275  and  _276
REMARK  113  A    between atoms: _279  and  _281
REMARK  114  A    between atoms: _281  and  _282
REMARK  115  A    between atoms: _281  and  _284
REMARK  116  A    between atoms: _284  and  _285
REMARK  117  A    between atoms: _285  and  _286
REMARK  118  A    between atoms: _291  and  _293
REMARK  119  A    between atoms: _293  and  _294
REMARK  120  A    between atoms: _293  and  _296
REMARK  121  A    between atoms: _299  and  _301
REMARK  122  A    between atoms: _301  and  _302
REMARK  123  A    between atoms: _301  and  _304
REMARK  124  A    between atoms: _304  and  _305
REMARK  125  A    between atoms: _305  and  _306
REMARK  126  A    between atoms: _306  and  _307
REMARK  127  A    between atoms: _307  and  _308
REMARK  128  A    between atoms: _312  and  _314
REMARK  129  A    between atoms: _314  and  _315
REMARK  130  A    between atoms: _314  and  _317
REMARK  131  A    between atoms: _317  and  _318
REMARK  132  A    between atoms: _320  and  _322
REMARK  133  A    between atoms: _322  and  _323
REMARK  134  A    between atoms: _326  and  _328
REMARK  135  A    between atoms: _328  and  _329
REMARK  136  A    between atoms: _328  and  _331
REMARK  137  A    between atoms: _331  and  _332
REMARK  138  A    between atoms: _335  and  _337
REMARK  139  A    between atoms: _337  and  _338
REMARK  140  A    between atoms: _337  and  _340
REMARK  141  A    between atoms: _340  and  _341
REMARK  142  A    between atoms: _341  and  _342
REMARK  143  A    between atoms: _342  and  _343
REMARK  144  A    between atoms: _352  and  _354
REMARK  145  A    between atoms: _354  and  _355
REMARK  146  A    between atoms: _354  and  _357
REMARK  147  A    between atoms: _357  and  _358
REMARK  148  A    between atoms: _361  and  _363
REMARK  149  A    between atoms: _363  and  _364
REMARK  150  A    between atoms: _363  and  _366
REMARK  151  A    between atoms: _366  and  _367
REMARK  152  A    between atoms: _372  and  _374
REMARK  153  A    between atoms: _374  and  _375
REMARK  154  A    between atoms: _374  and  _377
REMARK  155  A    between atoms: _377  and  _378
REMARK  156  A    between atoms: _381  and  _383
REMARK  157  A    between atoms: _383  and  _384
REMARK  158  A    between atoms: _383  and  _386
REMARK  159  A    between atoms: _386  and  _387
REMARK  160  A    between atoms: _390  and  _392
REMARK  161  A    between atoms: _392  and  _393
REMARK  162  A    between atoms: _392  and  _395
REMARK  163  A    between atoms: _395  and  _396
REMARK  164  A    between atoms: _398  and  _400
REMARK  165  A    between atoms: _400  and  _401
REMARK  166  A    between atoms: _400  and  _403
REMARK  167  A    between atoms: _403  and  _404
REMARK  168  A    between atoms: _404  and  _405
REMARK  169  A    between atoms: _405  and  _406
REMARK  170  A    between atoms: _415  and  _417
REMARK  171  A    between atoms: _417  and  _418
REMARK  172  A    between atoms: _422  and  _423
REMARK  173  A    between atoms: _428  and  _430
REMARK  174  A    between atoms: _430  and  _431
REMARK  175  A    between atoms: _430  and  _433
REMARK  176  A    between atoms: _433  and  _434
REMARK  177  A    between atoms: _434  and  _435
REMARK  178  A    between atoms: _437  and  _439
REMARK  179  A    between atoms: _439  and  _440
REMARK  180  A    between atoms: _439  and  _442
REMARK  181  A    between atoms: _442  and  _443
REMARK  182  A    between atoms: _446  and  _448
REMARK  183  A    between atoms: _448  and  _449
REMARK  184  A    between atoms: _448  and  _451
REMARK  185  A    between atoms: _451  and  _452
REMARK  186  A    between atoms: _455  and  _457
REMARK  187  A    between atoms: _457  and  _458
REMARK  188  A    between atoms: _457  and  _460
REMARK  189  A    between atoms: _460  and  _461
REMARK  190  A    between atoms: _461  and  _462
REMARK  191  A    between atoms: _465  and  _467
REMARK  192  A    between atoms: _467  and  _468
REMARK  193  A    between atoms: _467  and  _470
REMARK  194  A    between atoms: _470  and  _471
REMARK  195  A    between atoms: _471  and  _472
REMARK  196  A    between atoms: _475  and  _477
REMARK  197  A    between atoms: _477  and  _478
REMARK  198  A    between atoms: _477  and  _480
REMARK  199  A    between atoms: _480  and  _481
REMARK  200  A    between atoms: _484  and  _486
REMARK  201  A    between atoms: _486  and  _487
REMARK  202  A    between atoms: _486  and  _489
REMARK  203  A    between atoms: _492  and  _494
REMARK  204  A    between atoms: _494  and  _495
REMARK  205  A    between atoms: _494  and  _497
REMARK  206  A    between atoms: _497  and  _498
REMARK  207  A    between atoms: _498  and  _499
REMARK  208  A    between atoms: _499  and  _500
REMARK  209  A    between atoms: _500  and  _501
REMARK  210  A    between atoms: _505  and  _507
REMARK  211  A    between atoms: _507  and  _508
REMARK  212  A    between atoms: _507  and  _510
REMARK  213  A    between atoms: _510  and  _511
REMARK  214  A    between atoms: _511  and  _512
REMARK  215  A    between atoms: _515  and  _517
REMARK  216  A    between atoms: _517  and  _518
REMARK  217  A    between atoms: _517  and  _520
REMARK  218  A    between atoms: _520  and  _521
REMARK  219  A    between atoms: _523  and  _525
REMARK  220  A    between atoms: _525  and  _526
REMARK  221  A    between atoms: _525  and  _528
REMARK  222  A    between atoms: _528  and  _529
REMARK  223  A    between atoms: _529  and  _530
REMARK  224  A    between atoms: _530  and  _531
REMARK  225  A    between atoms: _540  and  _542
REMARK  226  A    between atoms: _542  and  _543
REMARK  227  A    between atoms: _542  and  _545
REMARK  228  A    between atoms: _545  and  _546
REMARK  229  A    between atoms: _549  and  _551
REMARK  230  A    between atoms: _551  and  _552
REMARK  231  A    between atoms: _551  and  _554
REMARK  232  A    between atoms: _554  and  _555
REMARK  233  A    between atoms: _560  and  _562
REMARK  234  A    between atoms: _562  and  _563
REMARK  235  A    between atoms: _562  and  _565
REMARK  236  A    between atoms: _565  and  _566
REMARK  237  A    between atoms: _566  and  _567
REMARK  238  A    between atoms: _567  and  _568
REMARK  239  A    between atoms: _577  and  _579
REMARK  240  A    between atoms: _579  and  _580
REMARK  241  A    between atoms: _579  and  _582
REMARK  242  A    between atoms: _582  and  _583
REMARK  243  A    between atoms: _586  and  _588
REMARK  244  A    between atoms: _588  and  _589
REMARK  245  A    between atoms: _588  and  _591
REMARK  246  A    between atoms: _591  and  _592
REMARK  247  A    between atoms: _595  and  _597
REMARK  248  A    between atoms: _597  and  _598
REMARK  249  A    between atoms: _597  and  _600
REMARK  250  A    between atoms: _600  and  _601
REMARK                            x       y       z     vdW  Elec       q    Type
REMARK                         _______ _______ _______ _____ _____    ______ ____
ROOT
ATOM      1  C   GLU A   1    -132.786  30.509 117.253  0.00  0.00    +0.238 C 
ATOM      2  O   GLU A   1    -132.661  29.655 118.132  0.00  0.00    -0.274 OA
ATOM      3  N   LEU A   2    -133.930  31.139 117.024  0.00  0.00    -0.298 N 
ATOM      4  H   LEU A   2    -133.964  31.888 116.303  0.00  0.00    +0.150 HD
ENDROOT
BRANCH   1   5
ATOM      5  CA  GLU A   1    -131.592  30.906 116.400  0.00  0.00    +0.145 C 
BRANCH   5   6
ATOM      6  N   GLU A   1    -131.903  31.528 115.111  0.00  0.00    -0.238 NA
ATOM      7  H   GLU A   1    -131.651  32.524 114.948  0.00  0.00    +0.142 HD
ENDBRANCH   5   6
BRANCH   5   8
ATOM      8  CB  GLU A   1    -130.660  31.799 117.219  0.00  0.00    +0.038 C 
BRANCH   8   9
ATOM      9  CG  GLU A   1    -129.211  31.699 116.759  0.00  0.00    +0.116 C 
BRANCH   9  10
ATOM     10  CD  GLU A   1    -128.584  30.356 117.128  0.00  0.00    +0.365 C 
ATOM     11  OE2 GLU A   1    -128.515  30.049 118.339  0.00  0.00    -0.246 OA
ATOM     12  OE1 GLU A   1    -128.173  29.607 116.214  0.00  0.00    -0.246 OA
ENDBRANCH   9  10
ENDBRANCH   8   9
ENDBRANCH   5   8
ENDBRANCH   1   5
BRANCH   3  13
ATOM     13  CA  LEU A   2    -135.140  30.803 117.763  0.00  0.00    +0.137 C 
BRANCH  13  14
ATOM     14  C   LEU A   2    -135.545  29.352 117.508  0.00  0.00    +0.227 C 
ATOM     15  O   LEU A   2    -136.197  28.720 118.344  0.00  0.00    -0.286 OA
ENDBRANCH  13  14
BRANCH  13  16
ATOM     16  CB  LEU A   2    -136.321  31.704 117.344  0.00  0.00    +0.028 C 
BRANCH  16  17
ATOM     17  CG  LEU A   2    -136.286  33.208 117.674  0.00  0.00    +0.002 C 
ATOM     18  CD2 LEU A   2    -135.913  33.384 119.150  0.00  0.00    +0.000 C 
ATOM     19  CD1 LEU A   2    -137.666  33.838 117.411  0.00  0.00    +0.000 C 
ENDBRANCH  16  17
ENDBRANCH  13  16
ENDBRANCH   3  13
TORSDOF 9
REMARK  Name = ../refined-set-2016/2pqb/2pqb_pocket.pdb
REMARK  250 active torsions:
REMARK  status: ('A' for Active; 'I' for Inactive)
REMARK    1  A    between atoms: _1  and  _3
REMARK    2  A    between atoms: _3  and  _4
REMARK    3  A    between atoms: _3  and  _6
REMARK    4  A    between atoms: _6  and  _7
REMARK    5  A    between atoms: _10  and  _12
REMARK    6  A    between atoms: _12  and  _13
REMARK    7  A    between atoms: _12  and  _15
REMARK    8  A    between atoms: _15  and  _16
REMARK    9  A    between atoms: _16  and  _17
REMARK   10  A    between atoms: _17  and  _18
REMARK   11  A    between atoms: _18  and  _19
REMARK   12  A    between atoms: _23  and  _25
REMARK   13  A    between atoms: _25  and  _26
REMARK   14  A    between atoms: _25  and  _28
REMARK   15  A    between atoms: _28  and  _29
REMARK   16  A    between atoms: _31  and  _33
REMARK   17  A    between atoms: _33  and  _34
REMARK   18  A    between atoms: _33  and  _36
REMARK   19  A    between atoms: _36  and  _37
REMARK   20  A    between atoms: _40  and  _42
REMARK   21  A    between atoms: _42  and  _43
REMARK   22  A    between atoms: _42  and  _45
REMARK   23  A    between atoms: _45  and  _46
REMARK   24  A    between atoms: _48  and  _50
REMARK   25  A    between atoms: _50  and  _51
REMARK   26  A    between atoms: _50  and  _53
REMARK   27  A    between atoms: _53  and  _54
REMARK   28  A    between atoms: _59  and  _61
REMARK   29  A    between atoms: _61  and  _62
REMARK   30  A    between atoms: _61  and  _64
REMARK   31  A    between atoms: _64  and  _65
REMARK   32  A    between atoms: _65  and  _66
REMARK   33  A    between atoms: _66  and  _67
REMARK   34  A    between atoms: _76  and  _78
REMARK   35  A    between atoms: _78  and  _79
REMARK   36  A    between atoms: _78  and  _81
REMARK   37  A    between atoms: _81  and  _82
REMARK   38  A    between atoms: _85  and  _87
REMARK   39  A    between atoms: _87  and  _88
REMARK   40  A    between atoms: _87  and  _90
REMARK   41  A    between atoms: _90  and  _91
REMARK   42  A    between atoms: _94  and  _96
REMARK   43  A    between atoms: _96  and  _97
REMARK   44  A    between atoms: _96  and  _99
REMARK   45  A    between atoms: _99  and  _100
REMARK   46  A    between atoms: _106  and  _108
REMARK   47  A    between atoms: _108  and  _109
REMARK   48  A    between atoms: _108  and  _111
REMARK   49  A    between atoms: _111  and  _112
REMARK   50  A    between atoms: _117  and  _119
REMARK   51  A    between atoms: _119  and  _120
REMARK   52  A    between atoms: _123  and  _125
REMARK   53  A    between atoms: _125  and  _126
REMARK   54  A    between atoms: _129  and  _131
REMARK   55  A    between atoms: _131  and  _132
REMARK   56  A    between atoms: _131  and  _134
REMARK   57  A    between atoms: _134  and  _135
REMARK   58  A    between atoms: _138  and  _140
REMARK   59  A    between atoms: _140  and  _141
REMARK   60  A    between atoms: _143  and  _145
REMARK   61  A    between atoms: _145  and  _146
REMARK   62  A    between atoms: _145  and  _148
REMARK   63  A    between atoms: _150  and  _152
REMARK   64  A    between atoms: _152  and  _153
REMARK   65  A    between atoms: _152  and  _155
REMARK   66  A    between atoms: _155  and  _156
REMARK   67  A    between atoms: _156  and  _157
REMARK   68  A    between atoms: _157  and  _158
REMARK   69  A    between atoms: _167  and  _169
REMARK   70  A    between atoms: _169  and  _170
REMARK   71  A    between atoms: _169  and  _172
REMARK   72  A    between atoms: _172  and  _173
REMARK   73  A    between atoms: _176  and  _178
REMARK   74  A    between atoms: _178  and  _179
REMARK   75  A    between atoms: _178  and  _181
REMARK   76  A    between atoms: _181  and  _182
REMARK   77  A    between atoms: _184  and  _186
REMARK   78  A    between atoms: _186  and  _187
REMARK   79  A    between atoms: _186  and  _189
REMARK   80  A    between atoms: _189  and  _190
REMARK   81  A    between atoms: _193  and  _195
REMARK   82  A    between atoms: _195  and  _196
REMARK   83  A    between atoms: _195  and  _198
REMARK   84  A    between atoms: _198  and  _199
REMARK   85  A    between atoms: _199  and  _200
REMARK   86  A    between atoms: _200  and  _201
REMARK   87  A    between atoms: _211  and  _212
REMARK   88  A    between atoms: _217  and  _219
REMARK   89  A    between atoms: _219  and  _220
REMARK   90  A    between atoms: _219  and  _222
REMARK   91  A    between atoms: _222  and  _223
REMARK   92  A    between atoms: _223  and  _224
REMARK   93  A    between atoms: _224  and  _225
REMARK   94  A    between atoms: _234  and  _236
REMARK   95  A    between atoms: _236  and  _237
REMARK   96  A    between atoms: _236  and  _239
REMARK   97  A    between atoms: _242  and  _244
REMARK   98  A    between atoms: _244  and  _245
REMARK   99  A    between atoms: _244  and  _247
REMARK  100  A    between atoms: _250  and  _252
REMARK  101  A    between atoms: _252  and  _253
REMARK  102  A    between atoms: _252  and  _255
REMARK  103  A    between atoms: _255  and  _256
REMARK  104  A    between atoms: _256  and  _257
REMARK  105  A    between atoms: _259  and  _261
REMARK  106  A    between atoms: _261  and  _262
REMARK  107  A    between atoms: _265  and  _267
REMARK  108  A    between atoms: _267  and  _268
REMARK  109  A    between atoms: _267  and  _270
REMARK  110  A    between atoms: _270  and  _271
REMARK  111  A    between atoms: _273  and  _275
REMARK  112  A    between atoms: _275  and  _276
REMARK  113  A    between atoms: _279  and  _281
REMARK  114  A    between atoms: _281  and  _282
REMARK  115  A    between atoms: _281  and  _284
REMARK  116  A    between atoms: _284  and  _285
REMARK  117  A    between atoms: _285  and  _286
REMARK  118  A    between atoms: _291  and  _293
REMARK  119  A    between atoms: _293  and  _294
REMARK  120  A    between atoms: _293  and  _296
REMARK  121  A    between atoms: _299  and  _301
REMARK  122  A    between atoms: _301  and  _302
REMARK  123  A    between atoms: _301  and  _304
REMARK  124  A    between atoms: _304  and  _305
REMARK  125  A    between atoms: _305  and  _306
REMARK  126  A    between atoms: _306  and  _307
REMARK  127  A    between atoms: _307  and  _308
REMARK  128  A    between atoms: _312  and  _314
REMARK  129  A    between atoms: _314  and  _315
REMARK  130  A    between atoms: _314  and  _317
REMARK  131  A    between atoms: _317  and  _318
REMARK  132  A    between atoms: _320  and  _322
REMARK  133  A    between atoms: _322  and  _323
REMARK  134  A    between atoms: _326  and  _328
REMARK  135  A    between atoms: _328  and  _329
REMARK  136  A    between atoms: _328  and  _331
REMARK  137  A    between atoms: _331  and  _332
REMARK  138  A    between atoms: _335  and  _337
REMARK  139  A    between atoms: _337  and  _338
REMARK  140  A    between atoms: _337  and  _340
REMARK  141  A    between atoms: _340  and  _341
REMARK  142  A    between atoms: _341  and  _342
REMARK  143  A    between atoms: _342  and  _343
REMARK  144  A    between atoms: _352  and  _354
REMARK  145  A    between atoms: _354  and  _355
REMARK  146  A    between atoms: _354  and  _357
REMARK  147  A    between atoms: _357  and  _358
REMARK  148  A    between atoms: _361  and  _363
REMARK  149  A    between atoms: _363  and  _364
REMARK  150  A    between atoms: _363  and  _366
REMARK  151  A    between atoms: _366  and  _367
REMARK  152  A    between atoms: _372  and  _374
REMARK  153  A    between atoms: _374  and  _375
REMARK  154  A    between atoms: _374  and  _377
REMARK  155  A    between atoms: _377  and  _378
REMARK  156  A    between atoms: _381  and  _383
REMARK  157  A    between atoms: _383  and  _384
REMARK  158  A    between atoms: _383  and  _386
REMARK  159  A    between atoms: _386  and  _387
REMARK  160  A    between atoms: _390  and  _392
REMARK  161  A    between atoms: _392  and  _393
REMARK  162  A    between atoms: _392  and  _395
REMARK  163  A    between atoms: _395  and  _396
REMARK  164  A    between atoms: _398  and  _400
REMARK  165  A    between atoms: _400  and  _401
REMARK  166  A    between atoms: _400  and  _403
REMARK  167  A    between atoms: _403  and  _404
REMARK  168  A    between atoms: _404  and  _405
REMARK  169  A    between atoms: _405  and  _406
REMARK  170  A    between atoms: _415  and  _417
REMARK  171  A    between atoms: _417  and  _418
REMARK  172  A    between atoms: _422  and  _423
REMARK  173  A    between atoms: _428  and  _430
REMARK  174  A    between atoms: _430  and  _431
REMARK  175  A    between atoms: _430  and  _433
REMARK  176  A    between atoms: _433  and  _434
REMARK  177  A    between atoms: _434  and  _435
REMARK  178  A    between atoms: _437  and  _439
REMARK  179  A    between atoms: _439  and  _440
REMARK  180  A    between atoms: _439  and  _442
REMARK  181  A    between atoms: _442  and  _443
REMARK  182  A    between atoms: _446  and  _448
REMARK  183  A    between atoms: _448  and  _449
REMARK  184  A    between atoms: _448  and  _451
REMARK  185  A    between atoms: _451  and  _452
REMARK  186  A    between atoms: _455  and  _457
REMARK  187  A    between atoms: _457  and  _458
REMARK  188  A    between atoms: _457  and  _460
REMARK  189  A    between atoms: _460  and  _461
REMARK  190  A    between atoms: _461  and  _462
REMARK  191  A    between atoms: _465  and  _467
REMARK  192  A    between atoms: _467  and  _468
REMARK  193  A    between atoms: _467  and  _470
REMARK  194  A    between atoms: _470  and  _471
REMARK  195  A    between atoms: _471  and  _472
REMARK  196  A    between atoms: _475  and  _477
REMARK  197  A    between atoms: _477  and  _478
REMARK  198  A    between atoms: _477  and  _480
REMARK  199  A    between atoms: _480  and  _481
REMARK  200  A    between atoms: _484  and  _486
REMARK  201  A    between atoms: _486  and  _487
REMARK  202  A    between atoms: _486  and  _489
REMARK  203  A    between atoms: _492  and  _494
REMARK  204  A    between atoms: _494  and  _495
REMARK  205  A    between atoms: _494  and  _497
REMARK  206  A    between atoms: _497  and  _498
REMARK  207  A    between atoms: _498  and  _499
REMARK  208  A    between atoms: _499  and  _500
REMARK  209  A    between atoms: _500  and  _501
REMARK  210  A    between atoms: _505  and  _507
REMARK  211  A    between atoms: _507  and  _508
REMARK  212  A    between atoms: _507  and  _510
REMARK  213  A    between atoms: _510  and  _511
REMARK  214  A    between atoms: _511  and  _512
REMARK  215  A    between atoms: _515  and  _517
REMARK  216  A    between atoms: _517  and  _518
REMARK  217  A    between atoms: _517  and  _520
REMARK  218  A    between atoms: _520  and  _521
REMARK  219  A    between atoms: _523  and  _525
REMARK  220  A    between atoms: _525  and  _526
REMARK  221  A    between atoms: _525  and  _528
REMARK  222  A    between atoms: _528  and  _529
REMARK  223  A    between atoms: _529  and  _530
REMARK  224  A    between atoms: _530  and  _531
REMARK  225  A    between atoms: _540  and  _542
REMARK  226  A    between atoms: _542  and  _543
REMARK  227  A    between atoms: _542  and  _545
REMARK  228  A    between atoms: _545  and  _546
REMARK  229  A    between atoms: _549  and  _551
REMARK  230  A    between atoms: _551  and  _552
REMARK  231  A    between atoms: _551  and  _554
REMARK  232  A    between atoms: _554  and  _555
REMARK  233  A    between atoms: _560  and  _562
REMARK  234  A    between atoms: _562  and  _563
REMARK  235  A    between atoms: _562  and  _565
REMARK  236  A    between atoms: _565  and  _566
REMARK  237  A    between atoms: _566  and  _567
REMARK  238  A    between atoms: _567  and  _568
REMARK  239  A    between atoms: _577  and  _579
REMARK  240  A    between atoms: _579  and  _580
REMARK  241  A    between atoms: _579  and  _582
REMARK  242  A    between atoms: _582  and  _583
REMARK  243  A    between atoms: _586  and  _588
REMARK  244  A    between atoms: _588  and  _589
REMARK  245  A    between atoms: _588  and  _591
REMARK  246  A    between atoms: _591  and  _592
REMARK  247  A    between atoms: _595  and  _597
REMARK  248  A    between atoms: _597  and  _598
REMARK  249  A    between atoms: _597  and  _600
REMARK  250  A    between atoms: _600  and  _601
REMARK                            x       y       z     vdW  Elec       q    Type
REMARK                         _______ _______ _______ _____ _____    ______ ____
ROOT
ATOM      1  C   LYS A   2    -135.070  25.693 122.476  0.00  0.00    +0.241 C 
ATOM      2  N   GLU A   3    -135.564  25.948 123.693  0.00  0.00    -0.297 N 
ATOM      3  H   GLU A   3    -135.358  26.863 124.143  0.00  0.00    +0.150 HD
ATOM      4  O   LYS A   2    -135.217  24.602 121.923  0.00  0.00    -0.273 OA
ENDROOT
BRANCH   2   5
ATOM      5  CA  GLU A   3    -136.392  24.964 124.409  0.00  0.00    +0.149 C 
BRANCH   5   6
ATOM      6  C   GLU A   3    -137.411  24.327 123.466  0.00  0.00    +0.241 C 
ATOM      7  O   GLU A   3    -137.731  23.136 123.595  0.00  0.00    -0.273 OA
ATOM      8  N   SER A   4    -137.943  25.141 122.553  0.00  0.00    -0.296 N 
ATOM      9  H   SER A   4    -137.701  26.152 122.588  0.00  0.00    +0.150 HD
BRANCH   8  10
ATOM     10  CA  SER A   4    -138.856  24.674 121.499  0.00  0.00    +0.166 C 
BRANCH  10  11
ATOM     11  C   SER A   4    -138.371  25.447 120.281  0.00  0.00    +0.229 C 
ATOM     12  O   SER A   4    -137.491  26.290 120.415  0.00  0.00    -0.286 OA
ENDBRANCH  10  11
BRANCH  10  13
ATOM     13  CB  SER A   4    -140.320  25.093 121.763  0.00  0.00    +0.165 C 
BRANCH  13  14
ATOM     14  OG  SER A   4    -140.503  26.508 121.679  0.00  0.00    -0.380 OA
ATOM     15  H   SER A   4    -139.930  26.954 122.352  0.00  0.00    +0.211 HD
ENDBRANCH  13  14
ENDBRANCH  10  13
ENDBRANCH   8  10
ENDBRANCH   5   6
BRANCH   5  16
ATOM     16  CB  GLU A   3    -137.059  25.657 125.596  0.00  0.00    +0.041 C 
BRANCH  16  17
ATOM     17  CG  GLU A   3    -136.058  25.962 126.709  0.00  0.00    +0.116 C 
BRANCH  17  18
ATOM     18  CD  GLU A   3    -136.603  26.911 127.760  0.00  0.00    +0.365 C 
ATOM     19  OE2 GLU A   3    -135.793  27.644 128.377  0.00  0.00    -0.246 OA
ATOM     20  OE1 GLU A   3    -137.833  26.914 127.980  0.00  0.00    -0.246 OA
ENDBRANCH  17  18
ENDBRANCH  16  17
ENDBRANCH   5  16
ENDBRANCH   2   5
BRANCH   1  21
ATOM     21  CA  LYS A   2    -134.248  26.797 121.780  0.00  0.00    +0.149 C 
BRANCH  21  24
ATOM     22  C   VAL A   1    -133.127  25.813 119.837  0.00  0.00    +0.238 C 
ATOM     23  O   VAL A   1    -132.265  25.306 120.545  0.00  0.00    -0.274 OA
ATOM     24  N   LYS A   2    -134.128  26.541 120.337  0.00  0.00    -0.297 N 
ATOM     25  H   LYS A   2    -134.840  26.937 119.690  0.00  0.00    +0.150 HD
BRANCH  22  26
ATOM     26  CA  VAL A   1    -133.106  25.595 118.310  0.00  0.00    +0.145 C 
BRANCH  26  27
ATOM     27  CB  VAL A   1    -131.626  25.465 117.823  0.00  0.00    +0.025 C 
ATOM     28  CG2 VAL A   1    -130.874  26.786 117.977  0.00  0.00    +0.002 C 
ATOM     29  CG1 VAL A   1    -131.619  25.050 116.354  0.00  0.00    +0.002 C 
ENDBRANCH  26  27
BRANCH  26  30
ATOM     30  N   VAL A   1    -133.835  26.626 117.555  0.00  0.00    -0.238 NA
ATOM     31  H   VAL A   1    -133.523  27.616 117.613  0.00  0.00    +0.142 HD
ENDBRANCH  26  30
ENDBRANCH  22  26
ENDBRANCH  21  24
BRANCH  21  32
ATOM     32  CB  LYS A   2    -134.885  28.182 122.003  0.00  0.00    +0.029 C 
BRANCH  32  33
ATOM     33  CG  LYS A   2    -134.072  29.357 121.406  0.00  0.00    +0.000 C 
BRANCH  33  34
ATOM     34  CD  LYS A   2    -132.734  29.570 122.144  0.00  0.00    -0.024 C 
BRANCH  34  35
ATOM     35  CE  LYS A   2    -131.933  30.720 121.528  0.00  0.00    -0.086 C 
BRANCH  35  36
ATOM     36  NZ  LYS A   2    -130.628  30.944 122.219  0.00  0.00    +0.380 N 
ATOM     37  HZ1 LYS A   2    -130.801  31.174 123.218  0.00  0.00    -0.089 HD
ATOM     38  HZ2 LYS A   2    -130.051  30.081 122.155  0.00  0.00    -0.089 HD
ATOM     39  HZ3 LYS A   2    -130.126  31.733 121.763  0.00  0.00    -0.089 HD
ENDBRANCH  35  36
ENDBRANCH  34  35
ENDBRANCH  33  34
ENDBRANCH  32  33
ENDBRANCH  21  32
ENDBRANCH   1  21
TORSDOF 19
REMARK  Name = ../refined-set-2016/2pqb/2pqb_pocket.pdb
REMARK  250 active torsions:
REMARK  status: ('A' for Active; 'I' for Inactive)
REMARK    1  A    between atoms: _1  and  _3
REMARK    2  A    between atoms: _3  and  _4
REMARK    3  A    between atoms: _3  and  _6
REMARK    4  A    between atoms: _6  and  _7
REMARK    5  A    between atoms: _10  and  _12
REMARK    6  A    between atoms: _12  and  _13
REMARK    7  A    between atoms: _12  and  _15
REMARK    8  A    between atoms: _15  and  _16
REMARK    9  A    between atoms: _16  and  _17
REMARK   10  A    between atoms: _17  and  _18
REMARK   11  A    between atoms: _18  and  _19
REMARK   12  A    between atoms: _23  and  _25
REMARK   13  A    between atoms: _25  and  _26
REMARK   14  A    between atoms: _25  and  _28
REMARK   15  A    between atoms: _28  and  _29
REMARK   16  A    between atoms: _31  and  _33
REMARK   17  A    between atoms: _33  and  _34
REMARK   18  A    between atoms: _33  and  _36
REMARK   19  A    between atoms: _36  and  _37
REMARK   20  A    between atoms: _40  and  _42
REMARK   21  A    between atoms: _42  and  _43
REMARK   22  A    between atoms: _42  and  _45
REMARK   23  A    between atoms: _45  and  _46
REMARK   24  A    between atoms: _48  and  _50
REMARK   25  A    between atoms: _50  and  _51
REMARK   26  A    between atoms: _50  and  _53
REMARK   27  A    between atoms: _53  and  _54
REMARK   28  A    between atoms: _59  and  _61
REMARK   29  A    between atoms: _61  and  _62
REMARK   30  A    between atoms: _61  and  _64
REMARK   31  A    between atoms: _64  and  _65
REMARK   32  A    between atoms: _65  and  _66
REMARK   33  A    between atoms: _66  and  _67
REMARK   34  A    between atoms: _76  and  _78
REMARK   35  A    between atoms: _78  and  _79
REMARK   36  A    between atoms: _78  and  _81
REMARK   37  A    between atoms: _81  and  _82
REMARK   38  A    between atoms: _85  and  _87
REMARK   39  A    between atoms: _87  and  _88
REMARK   40  A    between atoms: _87  and  _90
REMARK   41  A    between atoms: _90  and  _91
REMARK   42  A    between atoms: _94  and  _96
REMARK   43  A    between atoms: _96  and  _97
REMARK   44  A    between atoms: _96  and  _99
REMARK   45  A    between atoms: _99  and  _100
REMARK   46  A    between atoms: _106  and  _108
REMARK   47  A    between atoms: _108  and  _109
REMARK   48  A    between atoms: _108  and  _111
REMARK   49  A    between atoms: _111  and  _112
REMARK   50  A    between atoms: _117  and  _119
REMARK   51  A    between atoms: _119  and  _120
REMARK   52  A    between atoms: _123  and  _125
REMARK   53  A    between atoms: _125  and  _126
REMARK   54  A    between atoms: _129  and  _131
REMARK   55  A    between atoms: _131  and  _132
REMARK   56  A    between atoms: _131  and  _134
REMARK   57  A    between atoms: _134  and  _135
REMARK   58  A    between atoms: _138  and  _140
REMARK   59  A    between atoms: _140  and  _141
REMARK   60  A    between atoms: _143  and  _145
REMARK   61  A    between atoms: _145  and  _146
REMARK   62  A    between atoms: _145  and  _148
REMARK   63  A    between atoms: _150  and  _152
REMARK   64  A    between atoms: _152  and  _153
REMARK   65  A    between atoms: _152  and  _155
REMARK   66  A    between atoms: _155  and  _156
REMARK   67  A    between atoms: _156  and  _157
REMARK   68  A    between atoms: _157  and  _158
REMARK   69  A    between atoms: _167  and  _169
REMARK   70  A    between atoms: _169  and  _170
REMARK   71  A    between atoms: _169  and  _172
REMARK   72  A    between atoms: _172  and  _173
REMARK   73  A    between atoms: _176  and  _178
REMARK   74  A    between atoms: _178  and  _179
REMARK   75  A    between atoms: _178  and  _181
REMARK   76  A    between atoms: _181  and  _182
REMARK   77  A    between atoms: _184  and  _186
REMARK   78  A    between atoms: _186  and  _187
REMARK   79  A    between atoms: _186  and  _189
REMARK   80  A    between atoms: _189  and  _190
REMARK   81  A    between atoms: _193  and  _195
REMARK   82  A    between atoms: _195  and  _196
REMARK   83  A    between atoms: _195  and  _198
REMARK   84  A    between atoms: _198  and  _199
REMARK   85  A    between atoms: _199  and  _200
REMARK   86  A    between atoms: _200  and  _201
REMARK   87  A    between atoms: _211  and  _212
REMARK   88  A    between atoms: _217  and  _219
REMARK   89  A    between atoms: _219  and  _220
REMARK   90  A    between atoms: _219  and  _222
REMARK   91  A    between atoms: _222  and  _223
REMARK   92  A    between atoms: _223  and  _224
REMARK   93  A    between atoms: _224  and  _225
REMARK   94  A    between atoms: _234  and  _236
REMARK   95  A    between atoms: _236  and  _237
REMARK   96  A    between atoms: _236  and  _239
REMARK   97  A    between atoms: _242  and  _244
REMARK   98  A    between atoms: _244  and  _245
REMARK   99  A    between atoms: _244  and  _247
REMARK  100  A    between atoms: _250  and  _252
REMARK  101  A    between atoms: _252  and  _253
REMARK  102  A    between atoms: _252  and  _255
REMARK  103  A    between atoms: _255  and  _256
REMARK  104  A    between atoms: _256  and  _257
REMARK  105  A    between atoms: _259  and  _261
REMARK  106  A    between atoms: _261  and  _262
REMARK  107  A    between atoms: _265  and  _267
REMARK  108  A    between atoms: _267  and  _268
REMARK  109  A    between atoms: _267  and  _270
REMARK  110  A    between atoms: _270  and  _271
REMARK  111  A    between atoms: _273  and  _275
REMARK  112  A    between atoms: _275  and  _276
REMARK  113  A    between atoms: _279  and  _281
REMARK  114  A    between atoms: _281  and  _282
REMARK  115  A    between atoms: _281  and  _284
REMARK  116  A    between atoms: _284  and  _285
REMARK  117  A    between atoms: _285  and  _286
REMARK  118  A    between atoms: _291  and  _293
REMARK  119  A    between atoms: _293  and  _294
REMARK  120  A    between atoms: _293  and  _296
REMARK  121  A    between atoms: _299  and  _301
REMARK  122  A    between atoms: _301  and  _302
REMARK  123  A    between atoms: _301  and  _304
REMARK  124  A    between atoms: _304  and  _305
REMARK  125  A    between atoms: _305  and  _306
REMARK  126  A    between atoms: _306  and  _307
REMARK  127  A    between atoms: _307  and  _308
REMARK  128  A    between atoms: _312  and  _314
REMARK  129  A    between atoms: _314  and  _315
REMARK  130  A    between atoms: _314  and  _317
REMARK  131  A    between atoms: _317  and  _318
REMARK  132  A    between atoms: _320  and  _322
REMARK  133  A    between atoms: _322  and  _323
REMARK  134  A    between atoms: _326  and  _328
REMARK  135  A    between atoms: _328  and  _329
REMARK  136  A    between atoms: _328  and  _331
REMARK  137  A    between atoms: _331  and  _332
REMARK  138  A    between atoms: _335  and  _337
REMARK  139  A    between atoms: _337  and  _338
REMARK  140  A    between atoms: _337  and  _340
REMARK  141  A    between atoms: _340  and  _341
REMARK  142  A    between atoms: _341  and  _342
REMARK  143  A    between atoms: _342  and  _343
REMARK  144  A    between atoms: _352  and  _354
REMARK  145  A    between atoms: _354  and  _355
REMARK  146  A    between atoms: _354  and  _357
REMARK  147  A    between atoms: _357  and  _358
REMARK  148  A    between atoms: _361  and  _363
REMARK  149  A    between atoms: _363  and  _364
REMARK  150  A    between atoms: _363  and  _366
REMARK  151  A    between atoms: _366  and  _367
REMARK  152  A    between atoms: _372  and  _374
REMARK  153  A    between atoms: _374  and  _375
REMARK  154  A    between atoms: _374  and  _377
REMARK  155  A    between atoms: _377  and  _378
REMARK  156  A    between atoms: _381  and  _383
REMARK  157  A    between atoms: _383  and  _384
REMARK  158  A    between atoms: _383  and  _386
REMARK  159  A    between atoms: _386  and  _387
REMARK  160  A    between atoms: _390  and  _392
REMARK  161  A    between atoms: _392  and  _393
REMARK  162  A    between atoms: _392  and  _395
REMARK  163  A    between atoms: _395  and  _396
REMARK  164  A    between atoms: _398  and  _400
REMARK  165  A    between atoms: _400  and  _401
REMARK  166  A    between atoms: _400  and  _403
REMARK  167  A    between atoms: _403  and  _404
REMARK  168  A    between atoms: _404  and  _405
REMARK  169  A    between atoms: _405  and  _406
REMARK  170  A    between atoms: _415  and  _417
REMARK  171  A    between atoms: _417  and  _418
REMARK  172  A    between atoms: _422  and  _423
REMARK  173  A    between atoms: _428  and  _430
REMARK  174  A    between atoms: _430  and  _431
REMARK  175  A    between atoms: _430  and  _433
REMARK  176  A    between atoms: _433  and  _434
REMARK  177  A    between atoms: _434  and  _435
REMARK  178  A    between atoms: _437  and  _439
REMARK  179  A    between atoms: _439  and  _440
REMARK  180  A    between atoms: _439  and  _442
REMARK  181  A    between atoms: _442  and  _443
REMARK  182  A    between atoms: _446  and  _448
REMARK  183  A    between atoms: _448  and  _449
REMARK  184  A    between atoms: _448  and  _451
REMARK  185  A    between atoms: _451  and  _452
REMARK  186  A    between atoms: _455  and  _457
REMARK  187  A    between atoms: _457  and  _458
REMARK  188  A    between atoms: _457  and  _460
REMARK  189  A    between atoms: _460  and  _461
REMARK  190  A    between atoms: _461  and  _462
REMARK  191  A    between atoms: _465  and  _467
REMARK  192  A    between atoms: _467  and  _468
REMARK  193  A    between atoms: _467  and  _470
REMARK  194  A    between atoms: _470  and  _471
REMARK  195  A    between atoms: _471  and  _472
REMARK  196  A    between atoms: _475  and  _477
REMARK  197  A    between atoms: _477  and  _478
REMARK  198  A    between atoms: _477  and  _480
REMARK  199  A    between atoms: _480  and  _481
REMARK  200  A    between atoms: _484  and  _486
REMARK  201  A    between atoms: _486  and  _487
REMARK  202  A    between atoms: _486  and  _489
REMARK  203  A    between atoms: _492  and  _494
REMARK  204  A    between atoms: _494  and  _495
REMARK  205  A    between atoms: _494  and  _497
REMARK  206  A    between atoms: _497  and  _498
REMARK  207  A    between atoms: _498  and  _499
REMARK  208  A    between atoms: _499  and  _500
REMARK  209  A    between atoms: _500  and  _501
REMARK  210  A    between atoms: _505  and  _507
REMARK  211  A    between atoms: _507  and  _508
REMARK  212  A    between atoms: _507  and  _510
REMARK  213  A    between atoms: _510  and  _511
REMARK  214  A    between atoms: _511  and  _512
REMARK  215  A    between atoms: _515  and  _517
REMARK  216  A    between atoms: _517  and  _518
REMARK  217  A    between atoms: _517  and  _520
REMARK  218  A    between atoms: _520  and  _521
REMARK  219  A    between atoms: _523  and  _525
REMARK  220  A    between atoms: _525  and  _526
REMARK  221  A    between atoms: _525  and  _528
REMARK  222  A    between atoms: _528  and  _529
REMARK  223  A    between atoms: _529  and  _530
REMARK  224  A    between atoms: _530  and  _531
REMARK  225  A    between atoms: _540  and  _542
REMARK  226  A    between atoms: _542  and  _543
REMARK  227  A    between atoms: _542  and  _545
REMARK  228  A    between atoms: _545  and  _546
REMARK  229  A    between atoms: _549  and  _551
REMARK  230  A    between atoms: _551  and  _552
REMARK  231  A    between atoms: _551  and  _554
REMARK  232  A    between atoms: _554  and  _555
REMARK  233  A    between atoms: _560  and  _562
REMARK  234  A    between atoms: _562  and  _563
REMARK  235  A    between atoms: _562  and  _565
REMARK  236  A    between atoms: _565  and  _566
REMARK  237  A    between atoms: _566  and  _567
REMARK  238  A    between atoms: _567  and  _568
REMARK  239  A    between atoms: _577  and  _579
REMARK  240  A    between atoms: _579  and  _580
REMARK  241  A    between atoms: _579  and  _582
REMARK  242  A    between atoms: _582  and  _583
REMARK  243  A    between atoms: _586  and  _588
REMARK  244  A    between atoms: _588  and  _589
REMARK  245  A    between atoms: _588  and  _591
REMARK  246  A    between atoms: _591  and  _592
REMARK  247  A    between atoms: _595  and  _597
REMARK  248  A    between atoms: _597  and  _598
REMARK  249  A    between atoms: _597  and  _600
REMARK  250  A    between atoms: _600  and  _601
REMARK                            x       y       z     vdW  Elec       q    Type
REMARK                         _______ _______ _______ _____ _____    ______ ____
ROOT
ATOM      1  NE  ARG A   1    -137.786  29.874 123.748  0.00  0.00    -0.265 N 
ATOM      2  CZ  ARG A   1    -136.929  30.150 124.729  0.00  0.00    +0.342 C 
ATOM      3  NH2 ARG A   1    -137.070  29.567 125.918  0.00  0.00    -0.292 N 
ATOM      4 HH21 ARG A   1    -136.401  29.782 126.685  0.00  0.00    +0.255 HD
ATOM      5 HH22 ARG A   1    -137.849  28.897 126.080  0.00  0.00    +0.255 HD
ATOM      6  NH1 ARG A   1    -135.944  31.017 124.540  0.00  0.00    -0.292 N 
ATOM      7 HH11 ARG A   1    -135.280  31.226 125.312  0.00  0.00    +0.255 HD
ATOM      8 HH12 ARG A   1    -135.836  31.488 123.619  0.00  0.00    +0.255 HD
ATOM      9  HE  ARG A   1    -138.536  29.183 123.951  0.00  0.00    +0.259 HD
ENDROOT
BRANCH   1  10
ATOM     10  CD  ARG A   1    -137.760  30.467 122.399  0.00  0.00    +0.174 C 
BRANCH  10  11
ATOM     11  CG  ARG A   1    -138.727  29.688 121.495  0.00  0.00    +0.045 C 
BRANCH  11  12
ATOM     12  CB  ARG A   1    -138.974  30.307 120.120  0.00  0.00    +0.029 C 
BRANCH  12  13
ATOM     13  CA  ARG A   1    -139.816  29.367 119.244  0.00  0.00    +0.133 C 
BRANCH  13  14
ATOM     14  N   ARG A   1    -138.999  28.230 118.827  0.00  0.00    -0.239 NA
ATOM     15  H   ARG A   1    -137.969  28.267 118.969  0.00  0.00    +0.142 HD
ENDBRANCH  13  14
BRANCH  13  16
ATOM     16  C   ARG A   1    -140.507  30.147 118.144  0.00  0.00    +0.224 C 
ATOM     17  O   ARG A   1    -141.572  30.739 118.372  0.00  0.00    -0.287 OA
ENDBRANCH  13  16
ENDBRANCH  12  13
ENDBRANCH  11  12
ENDBRANCH  10  11
ENDBRANCH   1  10
TORSDOF 6
REMARK  Name = ../refined-set-2016/2pqb/2pqb_pocket.pdb
REMARK  250 active torsions:
REMARK  status: ('A' for Active; 'I' for Inactive)
REMARK    1  A    between atoms: _1  and  _3
REMARK    2  A    between atoms: _3  and  _4
REMARK    3  A    between atoms: _3  and  _6
REMARK    4  A    between atoms: _6  and  _7
REMARK    5  A    between atoms: _10  and  _12
REMARK    6  A    between atoms: _12  and  _13
REMARK    7  A    between atoms: _12  and  _15
REMARK    8  A    between atoms: _15  and  _16
REMARK    9  A    between atoms: _16  and  _17
REMARK   10  A    between atoms: _17  and  _18
REMARK   11  A    between atoms: _18  and  _19
REMARK   12  A    between atoms: _23  and  _25
REMARK   13  A    between atoms: _25  and  _26
REMARK   14  A    between atoms: _25  and  _28
REMARK   15  A    between atoms: _28  and  _29
REMARK   16  A    between atoms: _31  and  _33
REMARK   17  A    between atoms: _33  and  _34
REMARK   18  A    between atoms: _33  and  _36
REMARK   19  A    between atoms: _36  and  _37
REMARK   20  A    between atoms: _40  and  _42
REMARK   21  A    between atoms: _42  and  _43
REMARK   22  A    between atoms: _42  and  _45
REMARK   23  A    between atoms: _45  and  _46
REMARK   24  A    between atoms: _48  and  _50
REMARK   25  A    between atoms: _50  and  _51
REMARK   26  A    between atoms: _50  and  _53
REMARK   27  A    between atoms: _53  and  _54
REMARK   28  A    between atoms: _59  and  _61
REMARK   29  A    between atoms: _61  and  _62
REMARK   30  A    between atoms: _61  and  _64
REMARK   31  A    between atoms: _64  and  _65
REMARK   32  A    between atoms: _65  and  _66
REMARK   33  A    between atoms: _66  and  _67
REMARK   34  A    between atoms: _76  and  _78
REMARK   35  A    between atoms: _78  and  _79
REMARK   36  A    between atoms: _78  and  _81
REMARK   37  A    between atoms: _81  and  _82
REMARK   38  A    between atoms: _85  and  _87
REMARK   39  A    between atoms: _87  and  _88
REMARK   40  A    between atoms: _87  and  _90
REMARK   41  A    between atoms: _90  and  _91
REMARK   42  A    between atoms: _94  and  _96
REMARK   43  A    between atoms: _96  and  _97
REMARK   44  A    between atoms: _96  and  _99
REMARK   45  A    between atoms: _99  and  _100
REMARK   46  A    between atoms: _106  and  _108
REMARK   47  A    between atoms: _108  and  _109
REMARK   48  A    between atoms: _108  and  _111
REMARK   49  A    between atoms: _111  and  _112
REMARK   50  A    between atoms: _117  and  _119
REMARK   51  A    between atoms: _119  and  _120
REMARK   52  A    between atoms: _123  and  _125
REMARK   53  A    between atoms: _125  and  _126
REMARK   54  A    between atoms: _129  and  _131
REMARK   55  A    between atoms: _131  and  _132
REMARK   56  A    between atoms: _131  and  _134
REMARK   57  A    between atoms: _134  and  _135
REMARK   58  A    between atoms: _138  and  _140
REMARK   59  A    between atoms: _140  and  _141
REMARK   60  A    between atoms: _143  and  _145
REMARK   61  A    between atoms: _145  and  _146
REMARK   62  A    between atoms: _145  and  _148
REMARK   63  A    between atoms: _150  and  _152
REMARK   64  A    between atoms: _152  and  _153
REMARK   65  A    between atoms: _152  and  _155
REMARK   66  A    between atoms: _155  and  _156
REMARK   67  A    between atoms: _156  and  _157
REMARK   68  A    between atoms: _157  and  _158
REMARK   69  A    between atoms: _167  and  _169
REMARK   70  A    between atoms: _169  and  _170
REMARK   71  A    between atoms: _169  and  _172
REMARK   72  A    between atoms: _172  and  _173
REMARK   73  A    between atoms: _176  and  _178
REMARK   74  A    between atoms: _178  and  _179
REMARK   75  A    between atoms: _178  and  _181
REMARK   76  A    between atoms: _181  and  _182
REMARK   77  A    between atoms: _184  and  _186
REMARK   78  A    between atoms: _186  and  _187
REMARK   79  A    between atoms: _186  and  _189
REMARK   80  A    between atoms: _189  and  _190
REMARK   81  A    between atoms: _193  and  _195
REMARK   82  A    between atoms: _195  and  _196
REMARK   83  A    between atoms: _195  and  _198
REMARK   84  A    between atoms: _198  and  _199
REMARK   85  A    between atoms: _199  and  _200
REMARK   86  A    between atoms: _200  and  _201
REMARK   87  A    between atoms: _211  and  _212
REMARK   88  A    between atoms: _217  and  _219
REMARK   89  A    between atoms: _219  and  _220
REMARK   90  A    between atoms: _219  and  _222
REMARK   91  A    between atoms: _222  and  _223
REMARK   92  A    between atoms: _223  and  _224
REMARK   93  A    between atoms: _224  and  _225
REMARK   94  A    between atoms: _234  and  _236
REMARK   95  A    between atoms: _236  and  _237
REMARK   96  A    between atoms: _236  and  _239
REMARK   97  A    between atoms: _242  and  _244
REMARK   98  A    between atoms: _244  and  _245
REMARK   99  A    between atoms: _244  and  _247
REMARK  100  A    between atoms: _250  and  _252
REMARK  101  A    between atoms: _252  and  _253
REMARK  102  A    between atoms: _252  and  _255
REMARK  103  A    between atoms: _255  and  _256
REMARK  104  A    between atoms: _256  and  _257
REMARK  105  A    between atoms: _259  and  _261
REMARK  106  A    between atoms: _261  and  _262
REMARK  107  A    between atoms: _265  and  _267
REMARK  108  A    between atoms: _267  and  _268
REMARK  109  A    between atoms: _267  and  _270
REMARK  110  A    between atoms: _270  and  _271
REMARK  111  A    between atoms: _273  and  _275
REMARK  112  A    between atoms: _275  and  _276
REMARK  113  A    between atoms: _279  and  _281
REMARK  114  A    between atoms: _281  and  _282
REMARK  115  A    between atoms: _281  and  _284
REMARK  116  A    between atoms: _284  and  _285
REMARK  117  A    between atoms: _285  and  _286
REMARK  118  A    between atoms: _291  and  _293
REMARK  119  A    between atoms: _293  and  _294
REMARK  120  A    between atoms: _293  and  _296
REMARK  121  A    between atoms: _299  and  _301
REMARK  122  A    between atoms: _301  and  _302
REMARK  123  A    between atoms: _301  and  _304
REMARK  124  A    between atoms: _304  and  _305
REMARK  125  A    between atoms: _305  and  _306
REMARK  126  A    between atoms: _306  and  _307
REMARK  127  A    between atoms: _307  and  _308
REMARK  128  A    between atoms: _312  and  _314
REMARK  129  A    between atoms: _314  and  _315
REMARK  130  A    between atoms: _314  and  _317
REMARK  131  A    between atoms: _317  and  _318
REMARK  132  A    between atoms: _320  and  _322
REMARK  133  A    between atoms: _322  and  _323
REMARK  134  A    between atoms: _326  and  _328
REMARK  135  A    between atoms: _328  and  _329
REMARK  136  A    between atoms: _328  and  _331
REMARK  137  A    between atoms: _331  and  _332
REMARK  138  A    between atoms: _335  and  _337
REMARK  139  A    between atoms: _337  and  _338
REMARK  140  A    between atoms: _337  and  _340
REMARK  141  A    between atoms: _340  and  _341
REMARK  142  A    between atoms: _341  and  _342
REMARK  143  A    between atoms: _342  and  _343
REMARK  144  A    between atoms: _352  and  _354
REMARK  145  A    between atoms: _354  and  _355
REMARK  146  A    between atoms: _354  and  _357
REMARK  147  A    between atoms: _357  and  _358
REMARK  148  A    between atoms: _361  and  _363
REMARK  149  A    between atoms: _363  and  _364
REMARK  150  A    between atoms: _363  and  _366
REMARK  151  A    between atoms: _366  and  _367
REMARK  152  A    between atoms: _372  and  _374
REMARK  153  A    between atoms: _374  and  _375
REMARK  154  A    between atoms: _374  and  _377
REMARK  155  A    between atoms: _377  and  _378
REMARK  156  A    between atoms: _381  and  _383
REMARK  157  A    between atoms: _383  and  _384
REMARK  158  A    between atoms: _383  and  _386
REMARK  159  A    between atoms: _386  and  _387
REMARK  160  A    between atoms: _390  and  _392
REMARK  161  A    between atoms: _392  and  _393
REMARK  162  A    between atoms: _392  and  _395
REMARK  163  A    between atoms: _395  and  _396
REMARK  164  A    between atoms: _398  and  _400
REMARK  165  A    between atoms: _400  and  _401
REMARK  166  A    between atoms: _400  and  _403
REMARK  167  A    between atoms: _403  and  _404
REMARK  168  A    between atoms: _404  and  _405
REMARK  169  A    between atoms: _405  and  _406
REMARK  170  A    between atoms: _415  and  _417
REMARK  171  A    between atoms: _417  and  _418
REMARK  172  A    between atoms: _422  and  _423
REMARK  173  A    between atoms: _428  and  _430
REMARK  174  A    between atoms: _430  and  _431
REMARK  175  A    between atoms: _430  and  _433
REMARK  176  A    between atoms: _433  and  _434
REMARK  177  A    between atoms: _434  and  _435
REMARK  178  A    between atoms: _437  and  _439
REMARK  179  A    between atoms: _439  and  _440
REMARK  180  A    between atoms: _439  and  _442
REMARK  181  A    between atoms: _442  and  _443
REMARK  182  A    between atoms: _446  and  _448
REMARK  183  A    between atoms: _448  and  _449
REMARK  184  A    between atoms: _448  and  _451
REMARK  185  A    between atoms: _451  and  _452
REMARK  186  A    between atoms: _455  and  _457
REMARK  187  A    between atoms: _457  and  _458
REMARK  188  A    between atoms: _457  and  _460
REMARK  189  A    between atoms: _460  and  _461
REMARK  190  A    between atoms: _461  and  _462
REMARK  191  A    between atoms: _465  and  _467
REMARK  192  A    between atoms: _467  and  _468
REMARK  193  A    between atoms: _467  and  _470
REMARK  194  A    between atoms: _470  and  _471
REMARK  195  A    between atoms: _471  and  _472
REMARK  196  A    between atoms: _475  and  _477
REMARK  197  A    between atoms: _477  and  _478
REMARK  198  A    between atoms: _477  and  _480
REMARK  199  A    between atoms: _480  and  _481
REMARK  200  A    between atoms: _484  and  _486
REMARK  201  A    between atoms: _486  and  _487
REMARK  202  A    between atoms: _486  and  _489
REMARK  203  A    between atoms: _492  and  _494
REMARK  204  A    between atoms: _494  and  _495
REMARK  205  A    between atoms: _494  and  _497
REMARK  206  A    between atoms: _497  and  _498
REMARK  207  A    between atoms: _498  and  _499
REMARK  208  A    between atoms: _499  and  _500
REMARK  209  A    between atoms: _500  and  _501
REMARK  210  A    between atoms: _505  and  _507
REMARK  211  A    between atoms: _507  and  _508
REMARK  212  A    between atoms: _507  and  _510
REMARK  213  A    between atoms: _510  and  _511
REMARK  214  A    between atoms: _511  and  _512
REMARK  215  A    between atoms: _515  and  _517
REMARK  216  A    between atoms: _517  and  _518
REMARK  217  A    between atoms: _517  and  _520
REMARK  218  A    between atoms: _520  and  _521
REMARK  219  A    between atoms: _523  and  _525
REMARK  220  A    between atoms: _525  and  _526
REMARK  221  A    between atoms: _525  and  _528
REMARK  222  A    between atoms: _528  and  _529
REMARK  223  A    between atoms: _529  and  _530
REMARK  224  A    between atoms: _530  and  _531
REMARK  225  A    between atoms: _540  and  _542
REMARK  226  A    between atoms: _542  and  _543
REMARK  227  A    between atoms: _542  and  _545
REMARK  228  A    between atoms: _545  and  _546
REMARK  229  A    between atoms: _549  and  _551
REMARK  230  A    between atoms: _551  and  _552
REMARK  231  A    between atoms: _551  and  _554
REMARK  232  A    between atoms: _554  and  _555
REMARK  233  A    between atoms: _560  and  _562
REMARK  234  A    between atoms: _562  and  _563
REMARK  235  A    between atoms: _562  and  _565
REMARK  236  A    between atoms: _565  and  _566
REMARK  237  A    between atoms: _566  and  _567
REMARK  238  A    between atoms: _567  and  _568
REMARK  239  A    between atoms: _577  and  _579
REMARK  240  A    between atoms: _579  and  _580
REMARK  241  A    between atoms: _579  and  _582
REMARK  242  A    between atoms: _582  and  _583
REMARK  243  A    between atoms: _586  and  _588
REMARK  244  A    between atoms: _588  and  _589
REMARK  245  A    between atoms: _588  and  _591
REMARK  246  A    between atoms: _591  and  _592
REMARK  247  A    between atoms: _595  and  _597
REMARK  248  A    between atoms: _597  and  _598
REMARK  249  A    between atoms: _597  and  _600
REMARK  250  A    between atoms: _600  and  _601
REMARK                            x       y       z     vdW  Elec       q    Type
REMARK                         _______ _______ _______ _____ _____    ______ ____
ROOT
ATOM      1  CA  ARG A   3    -141.390  31.184 127.660  0.00  0.00    +0.149 C 
ENDROOT
BRANCH   1   4
ATOM      2  C   HIS A   2    -141.965  29.294 129.079  0.00  0.00    +0.241 C 
ATOM      3  O   HIS A   2    -142.880  29.944 129.577  0.00  0.00    -0.273 OA
ATOM      4  N   ARG A   3    -141.172  29.805 128.125  0.00  0.00    -0.297 N 
ATOM      5  H   ARG A   3    -140.408  29.230 127.717  0.00  0.00    +0.150 HD
BRANCH   2   6
ATOM      6  CA  HIS A   2    -141.747  27.842 129.544  0.00  0.00    +0.155 C 
BRANCH   6   8
ATOM      7  C   ASP A   1    -141.701  26.723 127.396  0.00  0.00    +0.239 C 
ATOM      8  N   HIS A   2    -141.124  26.967 128.568  0.00  0.00    -0.297 N 
ATOM      9  H   HIS A   2    -140.210  26.523 128.790  0.00  0.00    +0.150 HD
ATOM     10  O   ASP A   1    -142.765  27.246 127.053  0.00  0.00    -0.274 OA
BRANCH   7  11
ATOM     11  CA  ASP A   1    -140.965  25.762 126.473  0.00  0.00    +0.156 C 
BRANCH  11  12
ATOM     12  N   ASP A   1    -141.670  24.477 126.434  0.00  0.00    -0.238 NA
ATOM     13  H   ASP A   1    -142.578  24.430 125.929  0.00  0.00    +0.142 HD
ENDBRANCH  11  12
BRANCH  11  14
ATOM     14  CB  ASP A   1    -140.905  26.356 125.062  0.00  0.00    +0.140 C 
BRANCH  14  15
ATOM     15  CG  ASP A   1    -140.010  27.596 124.970  0.00  0.00    +0.367 C 
ATOM     16  OD2 ASP A   1    -139.839  28.308 125.975  0.00  0.00    -0.246 OA
ATOM     17  OD1 ASP A   1    -139.480  27.866 123.876  0.00  0.00    -0.246 OA
ENDBRANCH  14  15
ENDBRANCH  11  14
ENDBRANCH   7  11
ENDBRANCH   6   8
BRANCH   6  18
ATOM     18  CB  HIS A   2    -140.958  27.790 130.868  0.00  0.00    +0.076 C 
BRANCH  18  19
ATOM     19  CG  HIS A   2    -139.678  28.565 130.848  0.00  0.00    +0.082 A 
ATOM     20  CD2 HIS A   2    -139.214  29.537 131.667  0.00  0.00    +0.115 A 
ATOM     21  NE2 HIS A   2    -137.997  29.941 131.172  0.00  0.00    -0.221 NA
ATOM     22  CE1 HIS A   2    -137.718  29.237 130.090  0.00  0.00    +0.199 A 
ATOM     23  ND1 HIS A   2    -138.717  28.396 129.875  0.00  0.00    -0.227 NA
ENDBRANCH  18  19
ENDBRANCH   6  18
ENDBRANCH   2   6
ENDBRANCH   1   4
BRANCH   1  24
ATOM     24  C   ARG A   3    -142.592  31.251 126.722  0.00  0.00    +0.241 C 
ATOM     25  O   ARG A   3    -143.198  32.303 126.579  0.00  0.00    -0.273 OA
ATOM     26  N   ILE A   4    -142.931  30.141 126.063  0.00  0.00    -0.298 N 
ATOM     27  H   ILE A   4    -142.347  29.285 126.157  0.00  0.00    +0.150 HD
BRANCH  26  28
ATOM     28  CA  ILE A   4    -144.131  30.121 125.201  0.00  0.00    +0.137 C 
BRANCH  28  29
ATOM     29  CB  ILE A   4    -144.193  28.848 124.298  0.00  0.00    +0.026 C 
ATOM     30  CG2 ILE A   4    -145.587  28.746 123.607  0.00  0.00    +0.002 C 
BRANCH  29  31
ATOM     31  CG1 ILE A   4    -143.063  28.888 123.256  0.00  0.00    +0.002 C 
ATOM     32  CD1 ILE A   4    -143.075  30.139 122.343  0.00  0.00    +0.000 C 
ENDBRANCH  29  31
ENDBRANCH  28  29
BRANCH  28  33
ATOM     33  C   ILE A   4    -145.347  30.129 126.153  0.00  0.00    +0.227 C 
ATOM     34  O   ILE A   4    -146.316  30.863 125.951  0.00  0.00    -0.286 OA
ENDBRANCH  28  33
ENDBRANCH  26  28
ENDBRANCH   1  24
BRANCH   1  35
ATOM     35  CB  ARG A   3    -140.146  31.773 126.966  0.00  0.00    +0.033 C 
BRANCH  35  36
ATOM     36  CG  ARG A   3    -138.926  31.901 127.901  0.00  0.00    +0.045 C 
BRANCH  36  37
ATOM     37  CD  ARG A   3    -137.804  32.856 127.375  0.00  0.00    +0.174 C 
BRANCH  37  38
ATOM     38  NE  ARG A   3    -136.667  32.706 128.280  0.00  0.00    -0.265 N 
ATOM     39  CZ  ARG A   3    -136.616  33.204 129.514  0.00  0.00    +0.342 C 
ATOM     40  NH2 ARG A   3    -135.629  32.837 130.319  0.00  0.00    -0.292 N 
ATOM     41 HH21 ARG A   3    -135.577  33.218 131.285  0.00  0.00    +0.255 HD
ATOM     42 HH22 ARG A   3    -134.907  32.168 129.984  0.00  0.00    +0.255 HD
ATOM     43  NH1 ARG A   3    -137.610  33.941 130.000  0.00  0.00    -0.292 N 
ATOM     44 HH11 ARG A   3    -137.551  34.321 130.966  0.00  0.00    +0.255 HD
ATOM     45 HH12 ARG A   3    -138.446  34.138 129.414  0.00  0.00    +0.255 HD
ATOM     46  HE  ARG A   3    -135.842  32.174 127.937  0.00  0.00    +0.259 HD
ENDBRANCH  37  38
ENDBRANCH  36  37
ENDBRANCH  35  36
ENDBRANCH   1  35
TORSDOF 18
REMARK  Name = ../refined-set-2016/2pqb/2pqb_pocket.pdb
REMARK  250 active torsions:
REMARK  status: ('A' for Active; 'I' for Inactive)
REMARK    1  A    between atoms: _1  and  _3
REMARK    2  A    between atoms: _3  and  _4
REMARK    3  A    between atoms: _3  and  _6
REMARK    4  A    between atoms: _6  and  _7
REMARK    5  A    between atoms: _10  and  _12
REMARK    6  A    between atoms: _12  and  _13
REMARK    7  A    between atoms: _12  and  _15
REMARK    8  A    between atoms: _15  and  _16
REMARK    9  A    between atoms: _16  and  _17
REMARK   10  A    between atoms: _17  and  _18
REMARK   11  A    between atoms: _18  and  _19
REMARK   12  A    between atoms: _23  and  _25
REMARK   13  A    between atoms: _25  and  _26
REMARK   14  A    between atoms: _25  and  _28
REMARK   15  A    between atoms: _28  and  _29
REMARK   16  A    between atoms: _31  and  _33
REMARK   17  A    between atoms: _33  and  _34
REMARK   18  A    between atoms: _33  and  _36
REMARK   19  A    between atoms: _36  and  _37
REMARK   20  A    between atoms: _40  and  _42
REMARK   21  A    between atoms: _42  and  _43
REMARK   22  A    between atoms: _42  and  _45
REMARK   23  A    between atoms: _45  and  _46
REMARK   24  A    between atoms: _48  and  _50
REMARK   25  A    between atoms: _50  and  _51
REMARK   26  A    between atoms: _50  and  _53
REMARK   27  A    between atoms: _53  and  _54
REMARK   28  A    between atoms: _59  and  _61
REMARK   29  A    between atoms: _61  and  _62
REMARK   30  A    between atoms: _61  and  _64
REMARK   31  A    between atoms: _64  and  _65
REMARK   32  A    between atoms: _65  and  _66
REMARK   33  A    between atoms: _66  and  _67
REMARK   34  A    between atoms: _76  and  _78
REMARK   35  A    between atoms: _78  and  _79
REMARK   36  A    between atoms: _78  and  _81
REMARK   37  A    between atoms: _81  and  _82
REMARK   38  A    between atoms: _85  and  _87
REMARK   39  A    between atoms: _87  and  _88
REMARK   40  A    between atoms: _87  and  _90
REMARK   41  A    between atoms: _90  and  _91
REMARK   42  A    between atoms: _94  and  _96
REMARK   43  A    between atoms: _96  and  _97
REMARK   44  A    between atoms: _96  and  _99
REMARK   45  A    between atoms: _99  and  _100
REMARK   46  A    between atoms: _106  and  _108
REMARK   47  A    between atoms: _108  and  _109
REMARK   48  A    between atoms: _108  and  _111
REMARK   49  A    between atoms: _111  and  _112
REMARK   50  A    between atoms: _117  and  _119
REMARK   51  A    between atoms: _119  and  _120
REMARK   52  A    between atoms: _123  and  _125
REMARK   53  A    between atoms: _125  and  _126
REMARK   54  A    between atoms: _129  and  _131
REMARK   55  A    between atoms: _131  and  _132
REMARK   56  A    between atoms: _131  and  _134
REMARK   57  A    between atoms: _134  and  _135
REMARK   58  A    between atoms: _138  and  _140
REMARK   59  A    between atoms: _140  and  _141
REMARK   60  A    between atoms: _143  and  _145
REMARK   61  A    between atoms: _145  and  _146
REMARK   62  A    between atoms: _145  and  _148
REMARK   63  A    between atoms: _150  and  _152
REMARK   64  A    between atoms: _152  and  _153
REMARK   65  A    between atoms: _152  and  _155
REMARK   66  A    between atoms: _155  and  _156
REMARK   67  A    between atoms: _156  and  _157
REMARK   68  A    between atoms: _157  and  _158
REMARK   69  A    between atoms: _167  and  _169
REMARK   70  A    between atoms: _169  and  _170
REMARK   71  A    between atoms: _169  and  _172
REMARK   72  A    between atoms: _172  and  _173
REMARK   73  A    between atoms: _176  and  _178
REMARK   74  A    between atoms: _178  and  _179
REMARK   75  A    between atoms: _178  and  _181
REMARK   76  A    between atoms: _181  and  _182
REMARK   77  A    between atoms: _184  and  _186
REMARK   78  A    between atoms: _186  and  _187
REMARK   79  A    between atoms: _186  and  _189
REMARK   80  A    between atoms: _189  and  _190
REMARK   81  A    between atoms: _193  and  _195
REMARK   82  A    between atoms: _195  and  _196
REMARK   83  A    between atoms: _195  and  _198
REMARK   84  A    between atoms: _198  and  _199
REMARK   85  A    between atoms: _199  and  _200
REMARK   86  A    between atoms: _200  and  _201
REMARK   87  A    between atoms: _211  and  _212
REMARK   88  A    between atoms: _217  and  _219
REMARK   89  A    between atoms: _219  and  _220
REMARK   90  A    between atoms: _219  and  _222
REMARK   91  A    between atoms: _222  and  _223
REMARK   92  A    between atoms: _223  and  _224
REMARK   93  A    between atoms: _224  and  _225
REMARK   94  A    between atoms: _234  and  _236
REMARK   95  A    between atoms: _236  and  _237
REMARK   96  A    between atoms: _236  and  _239
REMARK   97  A    between atoms: _242  and  _244
REMARK   98  A    between atoms: _244  and  _245
REMARK   99  A    between atoms: _244  and  _247
REMARK  100  A    between atoms: _250  and  _252
REMARK  101  A    between atoms: _252  and  _253
REMARK  102  A    between atoms: _252  and  _255
REMARK  103  A    between atoms: _255  and  _256
REMARK  104  A    between atoms: _256  and  _257
REMARK  105  A    between atoms: _259  and  _261
REMARK  106  A    between atoms: _261  and  _262
REMARK  107  A    between atoms: _265  and  _267
REMARK  108  A    between atoms: _267  and  _268
REMARK  109  A    between atoms: _267  and  _270
REMARK  110  A    between atoms: _270  and  _271
REMARK  111  A    between atoms: _273  and  _275
REMARK  112  A    between atoms: _275  and  _276
REMARK  113  A    between atoms: _279  and  _281
REMARK  114  A    between atoms: _281  and  _282
REMARK  115  A    between atoms: _281  and  _284
REMARK  116  A    between atoms: _284  and  _285
REMARK  117  A    between atoms: _285  and  _286
REMARK  118  A    between atoms: _291  and  _293
REMARK  119  A    between atoms: _293  and  _294
REMARK  120  A    between atoms: _293  and  _296
REMARK  121  A    between atoms: _299  and  _301
REMARK  122  A    between atoms: _301  and  _302
REMARK  123  A    between atoms: _301  and  _304
REMARK  124  A    between atoms: _304  and  _305
REMARK  125  A    between atoms: _305  and  _306
REMARK  126  A    between atoms: _306  and  _307
REMARK  127  A    between atoms: _307  and  _308
REMARK  128  A    between atoms: _312  and  _314
REMARK  129  A    between atoms: _314  and  _315
REMARK  130  A    between atoms: _314  and  _317
REMARK  131  A    between atoms: _317  and  _318
REMARK  132  A    between atoms: _320  and  _322
REMARK  133  A    between atoms: _322  and  _323
REMARK  134  A    between atoms: _326  and  _328
REMARK  135  A    between atoms: _328  and  _329
REMARK  136  A    between atoms: _328  and  _331
REMARK  137  A    between atoms: _331  and  _332
REMARK  138  A    between atoms: _335  and  _337
REMARK  139  A    between atoms: _337  and  _338
REMARK  140  A    between atoms: _337  and  _340
REMARK  141  A    between atoms: _340  and  _341
REMARK  142  A    between atoms: _341  and  _342
REMARK  143  A    between atoms: _342  and  _343
REMARK  144  A    between atoms: _352  and  _354
REMARK  145  A    between atoms: _354  and  _355
REMARK  146  A    between atoms: _354  and  _357
REMARK  147  A    between atoms: _357  and  _358
REMARK  148  A    between atoms: _361  and  _363
REMARK  149  A    between atoms: _363  and  _364
REMARK  150  A    between atoms: _363  and  _366
REMARK  151  A    between atoms: _366  and  _367
REMARK  152  A    between atoms: _372  and  _374
REMARK  153  A    between atoms: _374  and  _375
REMARK  154  A    between atoms: _374  and  _377
REMARK  155  A    between atoms: _377  and  _378
REMARK  156  A    between atoms: _381  and  _383
REMARK  157  A    between atoms: _383  and  _384
REMARK  158  A    between atoms: _383  and  _386
REMARK  159  A    between atoms: _386  and  _387
REMARK  160  A    between atoms: _390  and  _392
REMARK  161  A    between atoms: _392  and  _393
REMARK  162  A    between atoms: _392  and  _395
REMARK  163  A    between atoms: _395  and  _396
REMARK  164  A    between atoms: _398  and  _400
REMARK  165  A    between atoms: _400  and  _401
REMARK  166  A    between atoms: _400  and  _403
REMARK  167  A    between atoms: _403  and  _404
REMARK  168  A    between atoms: _404  and  _405
REMARK  169  A    between atoms: _405  and  _406
REMARK  170  A    between atoms: _415  and  _417
REMARK  171  A    between atoms: _417  and  _418
REMARK  172  A    between atoms: _422  and  _423
REMARK  173  A    between atoms: _428  and  _430
REMARK  174  A    between atoms: _430  and  _431
REMARK  175  A    between atoms: _430  and  _433
REMARK  176  A    between atoms: _433  and  _434
REMARK  177  A    between atoms: _434  and  _435
REMARK  178  A    between atoms: _437  and  _439
REMARK  179  A    between atoms: _439  and  _440
REMARK  180  A    between atoms: _439  and  _442
REMARK  181  A    between atoms: _442  and  _443
REMARK  182  A    between atoms: _446  and  _448
REMARK  183  A    between atoms: _448  and  _449
REMARK  184  A    between atoms: _448  and  _451
REMARK  185  A    between atoms: _451  and  _452
REMARK  186  A    between atoms: _455  and  _457
REMARK  187  A    between atoms: _457  and  _458
REMARK  188  A    between atoms: _457  and  _460
REMARK  189  A    between atoms: _460  and  _461
REMARK  190  A    between atoms: _461  and  _462
REMARK  191  A    between atoms: _465  and  _467
REMARK  192  A    between atoms: _467  and  _468
REMARK  193  A    between atoms: _467  and  _470
REMARK  194  A    between atoms: _470  and  _471
REMARK  195  A    between atoms: _471  and  _472
REMARK  196  A    between atoms: _475  and  _477
REMARK  197  A    between atoms: _477  and  _478
REMARK  198  A    between atoms: _477  and  _480
REMARK  199  A    between atoms: _480  and  _481
REMARK  200  A    between atoms: _484  and  _486
REMARK  201  A    between atoms: _486  and  _487
REMARK  202  A    between atoms: _486  and  _489
REMARK  203  A    between atoms: _492  and  _494
REMARK  204  A    between atoms: _494  and  _495
REMARK  205  A    between atoms: _494  and  _497
REMARK  206  A    between atoms: _497  and  _498
REMARK  207  A    between atoms: _498  and  _499
REMARK  208  A    between atoms: _499  and  _500
REMARK  209  A    between atoms: _500  and  _501
REMARK  210  A    between atoms: _505  and  _507
REMARK  211  A    between atoms: _507  and  _508
REMARK  212  A    between atoms: _507  and  _510
REMARK  213  A    between atoms: _510  and  _511
REMARK  214  A    between atoms: _511  and  _512
REMARK  215  A    between atoms: _515  and  _517
REMARK  216  A    between atoms: _517  and  _518
REMARK  217  A    between atoms: _517  and  _520
REMARK  218  A    between atoms: _520  and  _521
REMARK  219  A    between atoms: _523  and  _525
REMARK  220  A    between atoms: _525  and  _526
REMARK  221  A    between atoms: _525  and  _528
REMARK  222  A    between atoms: _528  and  _529
REMARK  223  A    between atoms: _529  and  _530
REMARK  224  A    between atoms: _530  and  _531
REMARK  225  A    between atoms: _540  and  _542
REMARK  226  A    between atoms: _542  and  _543
REMARK  227  A    between atoms: _542  and  _545
REMARK  228  A    between atoms: _545  and  _546
REMARK  229  A    between atoms: _549  and  _551
REMARK  230  A    between atoms: _551  and  _552
REMARK  231  A    between atoms: _551  and  _554
REMARK  232  A    between atoms: _554  and  _555
REMARK  233  A    between atoms: _560  and  _562
REMARK  234  A    between atoms: _562  and  _563
REMARK  235  A    between atoms: _562  and  _565
REMARK  236  A    between atoms: _565  and  _566
REMARK  237  A    between atoms: _566  and  _567
REMARK  238  A    between atoms: _567  and  _568
REMARK  239  A    between atoms: _577  and  _579
REMARK  240  A    between atoms: _579  and  _580
REMARK  241  A    between atoms: _579  and  _582
REMARK  242  A    between atoms: _582  and  _583
REMARK  243  A    between atoms: _586  and  _588
REMARK  244  A    between atoms: _588  and  _589
REMARK  245  A    between atoms: _588  and  _591
REMARK  246  A    between atoms: _591  and  _592
REMARK  247  A    between atoms: _595  and  _597
REMARK  248  A    between atoms: _597  and  _598
REMARK  249  A    between atoms: _597  and  _600
REMARK  250  A    between atoms: _600  and  _601
REMARK                            x       y       z     vdW  Elec       q    Type
REMARK                         _______ _______ _______ _____ _____    ______ ____
ROOT
ATOM      1  C   THR A   1    -136.728  27.452 135.639  0.00  0.00    +0.241 C 
ATOM      2  O   THR A   1    -135.538  27.402 135.967  0.00  0.00    -0.274 OA
ATOM      3  N   SER A   2    -137.376  28.603 135.430  0.00  0.00    -0.296 N 
ATOM      4  H   SER A   2    -138.381  28.578 135.163  0.00  0.00    +0.150 HD
ENDROOT
BRANCH   1   5
ATOM      5  CA  THR A   1    -137.516  26.161 135.452  0.00  0.00    +0.172 C 
BRANCH   5   6
ATOM      6  N   THR A   1    -138.918  26.336 135.815  0.00  0.00    -0.236 NA
ATOM      7  H   THR A   1    -139.661  26.265 135.091  0.00  0.00    +0.142 HD
ENDBRANCH   5   6
BRANCH   5   8
ATOM      8  CB  THR A   1    -137.328  25.691 133.990  0.00  0.00    +0.135 C 
ATOM      9  CG2 THR A   1    -137.920  24.288 133.803  0.00  0.00    +0.034 C 
BRANCH   8  10
ATOM     10  OG1 THR A   1    -137.977  26.602 133.098  0.00  0.00    -0.383 OA
ATOM     11  HG1 THR A   1    -138.944  26.636 133.309  0.00  0.00    +0.210 HD
ENDBRANCH   8  10
ENDBRANCH   5   8
ENDBRANCH   1   5
BRANCH   3  12
ATOM     12  CA  SER A   2    -136.701  29.908 135.569  0.00  0.00    +0.166 C 
BRANCH  12  13
ATOM     13  CB  SER A   2    -137.506  30.997 136.301  0.00  0.00    +0.229 C 
ATOM     14  OG  SER A   2    -136.967  32.057 136.621  0.00  0.00    -0.286 OA
ENDBRANCH  12  13
BRANCH  12  15
ATOM     15  C   SER A   2    -136.347  30.476 134.181  0.00  0.00    +0.165 C 
BRANCH  15  16
ATOM     16  O   SER A   2    -137.519  30.985 133.547  0.00  0.00    -0.380 OA
ATOM     17  H   SER A   2    -137.281  31.347 132.657  0.00  0.00    +0.211 HD
ENDBRANCH  15  16
ENDBRANCH  12  15
ENDBRANCH   3  12
TORSDOF 8
REMARK  Name = ../refined-set-2016/2pqb/2pqb_pocket.pdb
REMARK  250 active torsions:
REMARK  status: ('A' for Active; 'I' for Inactive)
REMARK    1  A    between atoms: _1  and  _3
REMARK    2  A    between atoms: _3  and  _4
REMARK    3  A    between atoms: _3  and  _6
REMARK    4  A    between atoms: _6  and  _7
REMARK    5  A    between atoms: _10  and  _12
REMARK    6  A    between atoms: _12  and  _13
REMARK    7  A    between atoms: _12  and  _15
REMARK    8  A    between atoms: _15  and  _16
REMARK    9  A    between atoms: _16  and  _17
REMARK   10  A    between atoms: _17  and  _18
REMARK   11  A    between atoms: _18  and  _19
REMARK   12  A    between atoms: _23  and  _25
REMARK   13  A    between atoms: _25  and  _26
REMARK   14  A    between atoms: _25  and  _28
REMARK   15  A    between atoms: _28  and  _29
REMARK   16  A    between atoms: _31  and  _33
REMARK   17  A    between atoms: _33  and  _34
REMARK   18  A    between atoms: _33  and  _36
REMARK   19  A    between atoms: _36  and  _37
REMARK   20  A    between atoms: _40  and  _42
REMARK   21  A    between atoms: _42  and  _43
REMARK   22  A    between atoms: _42  and  _45
REMARK   23  A    between atoms: _45  and  _46
REMARK   24  A    between atoms: _48  and  _50
REMARK   25  A    between atoms: _50  and  _51
REMARK   26  A    between atoms: _50  and  _53
REMARK   27  A    between atoms: _53  and  _54
REMARK   28  A    between atoms: _59  and  _61
REMARK   29  A    between atoms: _61  and  _62
REMARK   30  A    between atoms: _61  and  _64
REMARK   31  A    between atoms: _64  and  _65
REMARK   32  A    between atoms: _65  and  _66
REMARK   33  A    between atoms: _66  and  _67
REMARK   34  A    between atoms: _76  and  _78
REMARK   35  A    between atoms: _78  and  _79
REMARK   36  A    between atoms: _78  and  _81
REMARK   37  A    between atoms: _81  and  _82
REMARK   38  A    between atoms: _85  and  _87
REMARK   39  A    between atoms: _87  and  _88
REMARK   40  A    between atoms: _87  and  _90
REMARK   41  A    between atoms: _90  and  _91
REMARK   42  A    between atoms: _94  and  _96
REMARK   43  A    between atoms: _96  and  _97
REMARK   44  A    between atoms: _96  and  _99
REMARK   45  A    between atoms: _99  and  _100
REMARK   46  A    between atoms: _106  and  _108
REMARK   47  A    between atoms: _108  and  _109
REMARK   48  A    between atoms: _108  and  _111
REMARK   49  A    between atoms: _111  and  _112
REMARK   50  A    between atoms: _117  and  _119
REMARK   51  A    between atoms: _119  and  _120
REMARK   52  A    between atoms: _123  and  _125
REMARK   53  A    between atoms: _125  and  _126
REMARK   54  A    between atoms: _129  and  _131
REMARK   55  A    between atoms: _131  and  _132
REMARK   56  A    between atoms: _131  and  _134
REMARK   57  A    between atoms: _134  and  _135
REMARK   58  A    between atoms: _138  and  _140
REMARK   59  A    between atoms: _140  and  _141
REMARK   60  A    between atoms: _143  and  _145
REMARK   61  A    between atoms: _145  and  _146
REMARK   62  A    between atoms: _145  and  _148
REMARK   63  A    between atoms: _150  and  _152
REMARK   64  A    between atoms: _152  and  _153
REMARK   65  A    between atoms: _152  and  _155
REMARK   66  A    between atoms: _155  and  _156
REMARK   67  A    between atoms: _156  and  _157
REMARK   68  A    between atoms: _157  and  _158
REMARK   69  A    between atoms: _167  and  _169
REMARK   70  A    between atoms: _169  and  _170
REMARK   71  A    between atoms: _169  and  _172
REMARK   72  A    between atoms: _172  and  _173
REMARK   73  A    between atoms: _176  and  _178
REMARK   74  A    between atoms: _178  and  _179
REMARK   75  A    between atoms: _178  and  _181
REMARK   76  A    between atoms: _181  and  _182
REMARK   77  A    between atoms: _184  and  _186
REMARK   78  A    between atoms: _186  and  _187
REMARK   79  A    between atoms: _186  and  _189
REMARK   80  A    between atoms: _189  and  _190
REMARK   81  A    between atoms: _193  and  _195
REMARK   82  A    between atoms: _195  and  _196
REMARK   83  A    between atoms: _195  and  _198
REMARK   84  A    between atoms: _198  and  _199
REMARK   85  A    between atoms: _199  and  _200
REMARK   86  A    between atoms: _200  and  _201
REMARK   87  A    between atoms: _211  and  _212
REMARK   88  A    between atoms: _217  and  _219
REMARK   89  A    between atoms: _219  and  _220
REMARK   90  A    between atoms: _219  and  _222
REMARK   91  A    between atoms: _222  and  _223
REMARK   92  A    between atoms: _223  and  _224
REMARK   93  A    between atoms: _224  and  _225
REMARK   94  A    between atoms: _234  and  _236
REMARK   95  A    between atoms: _236  and  _237
REMARK   96  A    between atoms: _236  and  _239
REMARK   97  A    between atoms: _242  and  _244
REMARK   98  A    between atoms: _244  and  _245
REMARK   99  A    between atoms: _244  and  _247
REMARK  100  A    between atoms: _250  and  _252
REMARK  101  A    between atoms: _252  and  _253
REMARK  102  A    between atoms: _252  and  _255
REMARK  103  A    between atoms: _255  and  _256
REMARK  104  A    between atoms: _256  and  _257
REMARK  105  A    between atoms: _259  and  _261
REMARK  106  A    between atoms: _261  and  _262
REMARK  107  A    between atoms: _265  and  _267
REMARK  108  A    between atoms: _267  and  _268
REMARK  109  A    between atoms: _267  and  _270
REMARK  110  A    between atoms: _270  and  _271
REMARK  111  A    between atoms: _273  and  _275
REMARK  112  A    between atoms: _275  and  _276
REMARK  113  A    between atoms: _279  and  _281
REMARK  114  A    between atoms: _281  and  _282
REMARK  115  A    between atoms: _281  and  _284
REMARK  116  A    between atoms: _284  and  _285
REMARK  117  A    between atoms: _285  and  _286
REMARK  118  A    between atoms: _291  and  _293
REMARK  119  A    between atoms: _293  and  _294
REMARK  120  A    between atoms: _293  and  _296
REMARK  121  A    between atoms: _299  and  _301
REMARK  122  A    between atoms: _301  and  _302
REMARK  123  A    between atoms: _301  and  _304
REMARK  124  A    between atoms: _304  and  _305
REMARK  125  A    between atoms: _305  and  _306
REMARK  126  A    between atoms: _306  and  _307
REMARK  127  A    between atoms: _307  and  _308
REMARK  128  A    between atoms: _312  and  _314
REMARK  129  A    between atoms: _314  and  _315
REMARK  130  A    between atoms: _314  and  _317
REMARK  131  A    between atoms: _317  and  _318
REMARK  132  A    between atoms: _320  and  _322
REMARK  133  A    between atoms: _322  and  _323
REMARK  134  A    between atoms: _326  and  _328
REMARK  135  A    between atoms: _328  and  _329
REMARK  136  A    between atoms: _328  and  _331
REMARK  137  A    between atoms: _331  and  _332
REMARK  138  A    between atoms: _335  and  _337
REMARK  139  A    between atoms: _337  and  _338
REMARK  140  A    between atoms: _337  and  _340
REMARK  141  A    between atoms: _340  and  _341
REMARK  142  A    between atoms: _341  and  _342
REMARK  143  A    between atoms: _342  and  _343
REMARK  144  A    between atoms: _352  and  _354
REMARK  145  A    between atoms: _354  and  _355
REMARK  146  A    between atoms: _354  and  _357
REMARK  147  A    between atoms: _357  and  _358
REMARK  148  A    between atoms: _361  and  _363
REMARK  149  A    between atoms: _363  and  _364
REMARK  150  A    between atoms: _363  and  _366
REMARK  151  A    between atoms: _366  and  _367
REMARK  152  A    between atoms: _372  and  _374
REMARK  153  A    between atoms: _374  and  _375
REMARK  154  A    between atoms: _374  and  _377
REMARK  155  A    between atoms: _377  and  _378
REMARK  156  A    between atoms: _381  and  _383
REMARK  157  A    between atoms: _383  and  _384
REMARK  158  A    between atoms: _383  and  _386
REMARK  159  A    between atoms: _386  and  _387
REMARK  160  A    between atoms: _390  and  _392
REMARK  161  A    between atoms: _392  and  _393
REMARK  162  A    between atoms: _392  and  _395
REMARK  163  A    between atoms: _395  and  _396
REMARK  164  A    between atoms: _398  and  _400
REMARK  165  A    between atoms: _400  and  _401
REMARK  166  A    between atoms: _400  and  _403
REMARK  167  A    between atoms: _403  and  _404
REMARK  168  A    between atoms: _404  and  _405
REMARK  169  A    between atoms: _405  and  _406
REMARK  170  A    between atoms: _415  and  _417
REMARK  171  A    between atoms: _417  and  _418
REMARK  172  A    between atoms: _422  and  _423
REMARK  173  A    between atoms: _428  and  _430
REMARK  174  A    between atoms: _430  and  _431
REMARK  175  A    between atoms: _430  and  _433
REMARK  176  A    between atoms: _433  and  _434
REMARK  177  A    between atoms: _434  and  _435
REMARK  178  A    between atoms: _437  and  _439
REMARK  179  A    between atoms: _439  and  _440
REMARK  180  A    between atoms: _439  and  _442
REMARK  181  A    between atoms: _442  and  _443
REMARK  182  A    between atoms: _446  and  _448
REMARK  183  A    between atoms: _448  and  _449
REMARK  184  A    between atoms: _448  and  _451
REMARK  185  A    between atoms: _451  and  _452
REMARK  186  A    between atoms: _455  and  _457
REMARK  187  A    between atoms: _457  and  _458
REMARK  188  A    between atoms: _457  and  _460
REMARK  189  A    between atoms: _460  and  _461
REMARK  190  A    between atoms: _461  and  _462
REMARK  191  A    between atoms: _465  and  _467
REMARK  192  A    between atoms: _467  and  _468
REMARK  193  A    between atoms: _467  and  _470
REMARK  194  A    between atoms: _470  and  _471
REMARK  195  A    between atoms: _471  and  _472
REMARK  196  A    between atoms: _475  and  _477
REMARK  197  A    between atoms: _477  and  _478
REMARK  198  A    between atoms: _477  and  _480
REMARK  199  A    between atoms: _480  and  _481
REMARK  200  A    between atoms: _484  and  _486
REMARK  201  A    between atoms: _486  and  _487
REMARK  202  A    between atoms: _486  and  _489
REMARK  203  A    between atoms: _492  and  _494
REMARK  204  A    between atoms: _494  and  _495
REMARK  205  A    between atoms: _494  and  _497
REMARK  206  A    between atoms: _497  and  _498
REMARK  207  A    between atoms: _498  and  _499
REMARK  208  A    between atoms: _499  and  _500
REMARK  209  A    between atoms: _500  and  _501
REMARK  210  A    between atoms: _505  and  _507
REMARK  211  A    between atoms: _507  and  _508
REMARK  212  A    between atoms: _507  and  _510
REMARK  213  A    between atoms: _510  and  _511
REMARK  214  A    between atoms: _511  and  _512
REMARK  215  A    between atoms: _515  and  _517
REMARK  216  A    between atoms: _517  and  _518
REMARK  217  A    between atoms: _517  and  _520
REMARK  218  A    between atoms: _520  and  _521
REMARK  219  A    between atoms: _523  and  _525
REMARK  220  A    between atoms: _525  and  _526
REMARK  221  A    between atoms: _525  and  _528
REMARK  222  A    between atoms: _528  and  _529
REMARK  223  A    between atoms: _529  and  _530
REMARK  224  A    between atoms: _530  and  _531
REMARK  225  A    between atoms: _540  and  _542
REMARK  226  A    between atoms: _542  and  _543
REMARK  227  A    between atoms: _542  and  _545
REMARK  228  A    between atoms: _545  and  _546
REMARK  229  A    between atoms: _549  and  _551
REMARK  230  A    between atoms: _551  and  _552
REMARK  231  A    between atoms: _551  and  _554
REMARK  232  A    between atoms: _554  and  _555
REMARK  233  A    between atoms: _560  and  _562
REMARK  234  A    between atoms: _562  and  _563
REMARK  235  A    between atoms: _562  and  _565
REMARK  236  A    between atoms: _565  and  _566
REMARK  237  A    between atoms: _566  and  _567
REMARK  238  A    between atoms: _567  and  _568
REMARK  239  A    between atoms: _577  and  _579
REMARK  240  A    between atoms: _579  and  _580
REMARK  241  A    between atoms: _579  and  _582
REMARK  242  A    between atoms: _582  and  _583
REMARK  243  A    between atoms: _586  and  _588
REMARK  244  A    between atoms: _588  and  _589
REMARK  245  A    between atoms: _588  and  _591
REMARK  246  A    between atoms: _591  and  _592
REMARK  247  A    between atoms: _595  and  _597
REMARK  248  A    between atoms: _597  and  _598
REMARK  249  A    between atoms: _597  and  _600
REMARK  250  A    between atoms: _600  and  _601
REMARK                            x       y       z     vdW  Elec       q    Type
REMARK                         _______ _______ _______ _____ _____    ______ ____
ROOT
ATOM      1  O   HOH     1    -138.436  36.492 128.252  0.00  0.00    +0.000 OA
ENDROOT
TORSDOF 0
REMARK  Name = ../refined-set-2016/2pqb/2pqb_pocket.pdb
REMARK  250 active torsions:
REMARK  status: ('A' for Active; 'I' for Inactive)
REMARK    1  A    between atoms: _1  and  _3
REMARK    2  A    between atoms: _3  and  _4
REMARK    3  A    between atoms: _3  and  _6
REMARK    4  A    between atoms: _6  and  _7
REMARK    5  A    between atoms: _10  and  _12
REMARK    6  A    between atoms: _12  and  _13
REMARK    7  A    between atoms: _12  and  _15
REMARK    8  A    between atoms: _15  and  _16
REMARK    9  A    between atoms: _16  and  _17
REMARK   10  A    between atoms: _17  and  _18
REMARK   11  A    between atoms: _18  and  _19
REMARK   12  A    between atoms: _23  and  _25
REMARK   13  A    between atoms: _25  and  _26
REMARK   14  A    between atoms: _25  and  _28
REMARK   15  A    between atoms: _28  and  _29
REMARK   16  A    between atoms: _31  and  _33
REMARK   17  A    between atoms: _33  and  _34
REMARK   18  A    between atoms: _33  and  _36
REMARK   19  A    between atoms: _36  and  _37
REMARK   20  A    between atoms: _40  and  _42
REMARK   21  A    between atoms: _42  and  _43
REMARK   22  A    between atoms: _42  and  _45
REMARK   23  A    between atoms: _45  and  _46
REMARK   24  A    between atoms: _48  and  _50
REMARK   25  A    between atoms: _50  and  _51
REMARK   26  A    between atoms: _50  and  _53
REMARK   27  A    between atoms: _53  and  _54
REMARK   28  A    between atoms: _59  and  _61
REMARK   29  A    between atoms: _61  and  _62
REMARK   30  A    between atoms: _61  and  _64
REMARK   31  A    between atoms: _64  and  _65
REMARK   32  A    between atoms: _65  and  _66
REMARK   33  A    between atoms: _66  and  _67
REMARK   34  A    between atoms: _76  and  _78
REMARK   35  A    between atoms: _78  and  _79
REMARK   36  A    between atoms: _78  and  _81
REMARK   37  A    between atoms: _81  and  _82
REMARK   38  A    between atoms: _85  and  _87
REMARK   39  A    between atoms: _87  and  _88
REMARK   40  A    between atoms: _87  and  _90
REMARK   41  A    between atoms: _90  and  _91
REMARK   42  A    between atoms: _94  and  _96
REMARK   43  A    between atoms: _96  and  _97
REMARK   44  A    between atoms: _96  and  _99
REMARK   45  A    between atoms: _99  and  _100
REMARK   46  A    between atoms: _106  and  _108
REMARK   47  A    between atoms: _108  and  _109
REMARK   48  A    between atoms: _108  and  _111
REMARK   49  A    between atoms: _111  and  _112
REMARK   50  A    between atoms: _117  and  _119
REMARK   51  A    between atoms: _119  and  _120
REMARK   52  A    between atoms: _123  and  _125
REMARK   53  A    between atoms: _125  and  _126
REMARK   54  A    between atoms: _129  and  _131
REMARK   55  A    between atoms: _131  and  _132
REMARK   56  A    between atoms: _131  and  _134
REMARK   57  A    between atoms: _134  and  _135
REMARK   58  A    between atoms: _138  and  _140
REMARK   59  A    between atoms: _140  and  _141
REMARK   60  A    between atoms: _143  and  _145
REMARK   61  A    between atoms: _145  and  _146
REMARK   62  A    between atoms: _145  and  _148
REMARK   63  A    between atoms: _150  and  _152
REMARK   64  A    between atoms: _152  and  _153
REMARK   65  A    between atoms: _152  and  _155
REMARK   66  A    between atoms: _155  and  _156
REMARK   67  A    between atoms: _156  and  _157
REMARK   68  A    between atoms: _157  and  _158
REMARK   69  A    between atoms: _167  and  _169
REMARK   70  A    between atoms: _169  and  _170
REMARK   71  A    between atoms: _169  and  _172
REMARK   72  A    between atoms: _172  and  _173
REMARK   73  A    between atoms: _176  and  _178
REMARK   74  A    between atoms: _178  and  _179
REMARK   75  A    between atoms: _178  and  _181
REMARK   76  A    between atoms: _181  and  _182
REMARK   77  A    between atoms: _184  and  _186
REMARK   78  A    between atoms: _186  and  _187
REMARK   79  A    between atoms: _186  and  _189
REMARK   80  A    between atoms: _189  and  _190
REMARK   81  A    between atoms: _193  and  _195
REMARK   82  A    between atoms: _195  and  _196
REMARK   83  A    between atoms: _195  and  _198
REMARK   84  A    between atoms: _198  and  _199
REMARK   85  A    between atoms: _199  and  _200
REMARK   86  A    between atoms: _200  and  _201
REMARK   87  A    between atoms: _211  and  _212
REMARK   88  A    between atoms: _217  and  _219
REMARK   89  A    between atoms: _219  and  _220
REMARK   90  A    between atoms: _219  and  _222
REMARK   91  A    between atoms: _222  and  _223
REMARK   92  A    between atoms: _223  and  _224
REMARK   93  A    between atoms: _224  and  _225
REMARK   94  A    between atoms: _234  and  _236
REMARK   95  A    between atoms: _236  and  _237
REMARK   96  A    between atoms: _236  and  _239
REMARK   97  A    between atoms: _242  and  _244
REMARK   98  A    between atoms: _244  and  _245
REMARK   99  A    between atoms: _244  and  _247
REMARK  100  A    between atoms: _250  and  _252
REMARK  101  A    between atoms: _252  and  _253
REMARK  102  A    between atoms: _252  and  _255
REMARK  103  A    between atoms: _255  and  _256
REMARK  104  A    between atoms: _256  and  _257
REMARK  105  A    between atoms: _259  and  _261
REMARK  106  A    between atoms: _261  and  _262
REMARK  107  A    between atoms: _265  and  _267
REMARK  108  A    between atoms: _267  and  _268
REMARK  109  A    between atoms: _267  and  _270
REMARK  110  A    between atoms: _270  and  _271
REMARK  111  A    between atoms: _273  and  _275
REMARK  112  A    between atoms: _275  and  _276
REMARK  113  A    between atoms: _279  and  _281
REMARK  114  A    between atoms: _281  and  _282
REMARK  115  A    between atoms: _281  and  _284
REMARK  116  A    between atoms: _284  and  _285
REMARK  117  A    between atoms: _285  and  _286
REMARK  118  A    between atoms: _291  and  _293
REMARK  119  A    between atoms: _293  and  _294
REMARK  120  A    between atoms: _293  and  _296
REMARK  121  A    between atoms: _299  and  _301
REMARK  122  A    between atoms: _301  and  _302
REMARK  123  A    between atoms: _301  and  _304
REMARK  124  A    between atoms: _304  and  _305
REMARK  125  A    between atoms: _305  and  _306
REMARK  126  A    between atoms: _306  and  _307
REMARK  127  A    between atoms: _307  and  _308
REMARK  128  A    between atoms: _312  and  _314
REMARK  129  A    between atoms: _314  and  _315
REMARK  130  A    between atoms: _314  and  _317
REMARK  131  A    between atoms: _317  and  _318
REMARK  132  A    between atoms: _320  and  _322
REMARK  133  A    between atoms: _322  and  _323
REMARK  134  A    between atoms: _326  and  _328
REMARK  135  A    between atoms: _328  and  _329
REMARK  136  A    between atoms: _328  and  _331
REMARK  137  A    between atoms: _331  and  _332
REMARK  138  A    between atoms: _335  and  _337
REMARK  139  A    between atoms: _337  and  _338
REMARK  140  A    between atoms: _337  and  _340
REMARK  141  A    between atoms: _340  and  _341
REMARK  142  A    between atoms: _341  and  _342
REMARK  143  A    between atoms: _342  and  _343
REMARK  144  A    between atoms: _352  and  _354
REMARK  145  A    between atoms: _354  and  _355
REMARK  146  A    between atoms: _354  and  _357
REMARK  147  A    between atoms: _357  and  _358
REMARK  148  A    between atoms: _361  and  _363
REMARK  149  A    between atoms: _363  and  _364
REMARK  150  A    between atoms: _363  and  _366
REMARK  151  A    between atoms: _366  and  _367
REMARK  152  A    between atoms: _372  and  _374
REMARK  153  A    between atoms: _374  and  _375
REMARK  154  A    between atoms: _374  and  _377
REMARK  155  A    between atoms: _377  and  _378
REMARK  156  A    between atoms: _381  and  _383
REMARK  157  A    between atoms: _383  and  _384
REMARK  158  A    between atoms: _383  and  _386
REMARK  159  A    between atoms: _386  and  _387
REMARK  160  A    between atoms: _390  and  _392
REMARK  161  A    between atoms: _392  and  _393
REMARK  162  A    between atoms: _392  and  _395
REMARK  163  A    between atoms: _395  and  _396
REMARK  164  A    between atoms: _398  and  _400
REMARK  165  A    between atoms: _400  and  _401
REMARK  166  A    between atoms: _400  and  _403
REMARK  167  A    between atoms: _403  and  _404
REMARK  168  A    between atoms: _404  and  _405
REMARK  169  A    between atoms: _405  and  _406
REMARK  170  A    between atoms: _415  and  _417
REMARK  171  A    between atoms: _417  and  _418
REMARK  172  A    between atoms: _422  and  _423
REMARK  173  A    between atoms: _428  and  _430
REMARK  174  A    between atoms: _430  and  _431
REMARK  175  A    between atoms: _430  and  _433
REMARK  176  A    between atoms: _433  and  _434
REMARK  177  A    between atoms: _434  and  _435
REMARK  178  A    between atoms: _437  and  _439
REMARK  179  A    between atoms: _439  and  _440
REMARK  180  A    between atoms: _439  and  _442
REMARK  181  A    between atoms: _442  and  _443
REMARK  182  A    between atoms: _446  and  _448
REMARK  183  A    between atoms: _448  and  _449
REMARK  184  A    between atoms: _448  and  _451
REMARK  185  A    between atoms: _451  and  _452
REMARK  186  A    between atoms: _455  and  _457
REMARK  187  A    between atoms: _457  and  _458
REMARK  188  A    between atoms: _457  and  _460
REMARK  189  A    between atoms: _460  and  _461
REMARK  190  A    between atoms: _461  and  _462
REMARK  191  A    between atoms: _465  and  _467
REMARK  192  A    between atoms: _467  and  _468
REMARK  193  A    between atoms: _467  and  _470
REMARK  194  A    between atoms: _470  and  _471
REMARK  195  A    between atoms: _471  and  _472
REMARK  196  A    between atoms: _475  and  _477
REMARK  197  A    between atoms: _477  and  _478
REMARK  198  A    between atoms: _477  and  _480
REMARK  199  A    between atoms: _480  and  _481
REMARK  200  A    between atoms: _484  and  _486
REMARK  201  A    between atoms: _486  and  _487
REMARK  202  A    between atoms: _486  and  _489
REMARK  203  A    between atoms: _492  and  _494
REMARK  204  A    between atoms: _494  and  _495
REMARK  205  A    between atoms: _494  and  _497
REMARK  206  A    between atoms: _497  and  _498
REMARK  207  A    between atoms: _498  and  _499
REMARK  208  A    between atoms: _499  and  _500
REMARK  209  A    between atoms: _500  and  _501
REMARK  210  A    between atoms: _505  and  _507
REMARK  211  A    between atoms: _507  and  _508
REMARK  212  A    between atoms: _507  and  _510
REMARK  213  A    between atoms: _510  and  _511
REMARK  214  A    between atoms: _511  and  _512
REMARK  215  A    between atoms: _515  and  _517
REMARK  216  A    between atoms: _517  and  _518
REMARK  217  A    between atoms: _517  and  _520
REMARK  218  A    between atoms: _520  and  _521
REMARK  219  A    between atoms: _523  and  _525
REMARK  220  A    between atoms: _525  and  _526
REMARK  221  A    between atoms: _525  and  _528
REMARK  222  A    between atoms: _528  and  _529
REMARK  223  A    between atoms: _529  and  _530
REMARK  224  A    between atoms: _530  and  _531
REMARK  225  A    between atoms: _540  and  _542
REMARK  226  A    between atoms: _542  and  _543
REMARK  227  A    between atoms: _542  and  _545
REMARK  228  A    between atoms: _545  and  _546
REMARK  229  A    between atoms: _549  and  _551
REMARK  230  A    between atoms: _551  and  _552
REMARK  231  A    between atoms: _551  and  _554
REMARK  232  A    between atoms: _554  and  _555
REMARK  233  A    between atoms: _560  and  _562
REMARK  234  A    between atoms: _562  and  _563
REMARK  235  A    between atoms: _562  and  _565
REMARK  236  A    between atoms: _565  and  _566
REMARK  237  A    between atoms: _566  and  _567
REMARK  238  A    between atoms: _567  and  _568
REMARK  239  A    between atoms: _577  and  _579
REMARK  240  A    between atoms: _579  and  _580
REMARK  241  A    between atoms: _579  and  _582
REMARK  242  A    between atoms: _582  and  _583
REMARK  243  A    between atoms: _586  and  _588
REMARK  244  A    between atoms: _588  and  _589
REMARK  245  A    between atoms: _588  and  _591
REMARK  246  A    between atoms: _591  and  _592
REMARK  247  A    between atoms: _595  and  _597
REMARK  248  A    between atoms: _597  and  _598
REMARK  249  A    between atoms: _597  and  _600
REMARK  250  A    between atoms: _600  and  _601
REMARK                            x       y       z     vdW  Elec       q    Type
REMARK                         _______ _______ _______ _____ _____    ______ ____
ROOT
ATOM      1  O   HOH     1    -129.434  31.112 131.671  0.00  0.00    +0.000 OA
ENDROOT
TORSDOF 0
REMARK  Name = ../refined-set-2016/2pqb/2pqb_pocket.pdb
REMARK  250 active torsions:
REMARK  status: ('A' for Active; 'I' for Inactive)
REMARK    1  A    between atoms: _1  and  _3
REMARK    2  A    between atoms: _3  and  _4
REMARK    3  A    between atoms: _3  and  _6
REMARK    4  A    between atoms: _6  and  _7
REMARK    5  A    between atoms: _10  and  _12
REMARK    6  A    between atoms: _12  and  _13
REMARK    7  A    between atoms: _12  and  _15
REMARK    8  A    between atoms: _15  and  _16
REMARK    9  A    between atoms: _16  and  _17
REMARK   10  A    between atoms: _17  and  _18
REMARK   11  A    between atoms: _18  and  _19
REMARK   12  A    between atoms: _23  and  _25
REMARK   13  A    between atoms: _25  and  _26
REMARK   14  A    between atoms: _25  and  _28
REMARK   15  A    between atoms: _28  and  _29
REMARK   16  A    between atoms: _31  and  _33
REMARK   17  A    between atoms: _33  and  _34
REMARK   18  A    between atoms: _33  and  _36
REMARK   19  A    between atoms: _36  and  _37
REMARK   20  A    between atoms: _40  and  _42
REMARK   21  A    between atoms: _42  and  _43
REMARK   22  A    between atoms: _42  and  _45
REMARK   23  A    between atoms: _45  and  _46
REMARK   24  A    between atoms: _48  and  _50
REMARK   25  A    between atoms: _50  and  _51
REMARK   26  A    between atoms: _50  and  _53
REMARK   27  A    between atoms: _53  and  _54
REMARK   28  A    between atoms: _59  and  _61
REMARK   29  A    between atoms: _61  and  _62
REMARK   30  A    between atoms: _61  and  _64
REMARK   31  A    between atoms: _64  and  _65
REMARK   32  A    between atoms: _65  and  _66
REMARK   33  A    between atoms: _66  and  _67
REMARK   34  A    between atoms: _76  and  _78
REMARK   35  A    between atoms: _78  and  _79
REMARK   36  A    between atoms: _78  and  _81
REMARK   37  A    between atoms: _81  and  _82
REMARK   38  A    between atoms: _85  and  _87
REMARK   39  A    between atoms: _87  and  _88
REMARK   40  A    between atoms: _87  and  _90
REMARK   41  A    between atoms: _90  and  _91
REMARK   42  A    between atoms: _94  and  _96
REMARK   43  A    between atoms: _96  and  _97
REMARK   44  A    between atoms: _96  and  _99
REMARK   45  A    between atoms: _99  and  _100
REMARK   46  A    between atoms: _106  and  _108
REMARK   47  A    between atoms: _108  and  _109
REMARK   48  A    between atoms: _108  and  _111
REMARK   49  A    between atoms: _111  and  _112
REMARK   50  A    between atoms: _117  and  _119
REMARK   51  A    between atoms: _119  and  _120
REMARK   52  A    between atoms: _123  and  _125
REMARK   53  A    between atoms: _125  and  _126
REMARK   54  A    between atoms: _129  and  _131
REMARK   55  A    between atoms: _131  and  _132
REMARK   56  A    between atoms: _131  and  _134
REMARK   57  A    between atoms: _134  and  _135
REMARK   58  A    between atoms: _138  and  _140
REMARK   59  A    between atoms: _140  and  _141
REMARK   60  A    between atoms: _143  and  _145
REMARK   61  A    between atoms: _145  and  _146
REMARK   62  A    between atoms: _145  and  _148
REMARK   63  A    between atoms: _150  and  _152
REMARK   64  A    between atoms: _152  and  _153
REMARK   65  A    between atoms: _152  and  _155
REMARK   66  A    between atoms: _155  and  _156
REMARK   67  A    between atoms: _156  and  _157
REMARK   68  A    between atoms: _157  and  _158
REMARK   69  A    between atoms: _167  and  _169
REMARK   70  A    between atoms: _169  and  _170
REMARK   71  A    between atoms: _169  and  _172
REMARK   72  A    between atoms: _172  and  _173
REMARK   73  A    between atoms: _176  and  _178
REMARK   74  A    between atoms: _178  and  _179
REMARK   75  A    between atoms: _178  and  _181
REMARK   76  A    between atoms: _181  and  _182
REMARK   77  A    between atoms: _184  and  _186
REMARK   78  A    between atoms: _186  and  _187
REMARK   79  A    between atoms: _186  and  _189
REMARK   80  A    between atoms: _189  and  _190
REMARK   81  A    between atoms: _193  and  _195
REMARK   82  A    between atoms: _195  and  _196
REMARK   83  A    between atoms: _195  and  _198
REMARK   84  A    between atoms: _198  and  _199
REMARK   85  A    between atoms: _199  and  _200
REMARK   86  A    between atoms: _200  and  _201
REMARK   87  A    between atoms: _211  and  _212
REMARK   88  A    between atoms: _217  and  _219
REMARK   89  A    between atoms: _219  and  _220
REMARK   90  A    between atoms: _219  and  _222
REMARK   91  A    between atoms: _222  and  _223
REMARK   92  A    between atoms: _223  and  _224
REMARK   93  A    between atoms: _224  and  _225
REMARK   94  A    between atoms: _234  and  _236
REMARK   95  A    between atoms: _236  and  _237
REMARK   96  A    between atoms: _236  and  _239
REMARK   97  A    between atoms: _242  and  _244
REMARK   98  A    between atoms: _244  and  _245
REMARK   99  A    between atoms: _244  and  _247
REMARK  100  A    between atoms: _250  and  _252
REMARK  101  A    between atoms: _252  and  _253
REMARK  102  A    between atoms: _252  and  _255
REMARK  103  A    between atoms: _255  and  _256
REMARK  104  A    between atoms: _256  and  _257
REMARK  105  A    between atoms: _259  and  _261
REMARK  106  A    between atoms: _261  and  _262
REMARK  107  A    between atoms: _265  and  _267
REMARK  108  A    between atoms: _267  and  _268
REMARK  109  A    between atoms: _267  and  _270
REMARK  110  A    between atoms: _270  and  _271
REMARK  111  A    between atoms: _273  and  _275
REMARK  112  A    between atoms: _275  and  _276
REMARK  113  A    between atoms: _279  and  _281
REMARK  114  A    between atoms: _281  and  _282
REMARK  115  A    between atoms: _281  and  _284
REMARK  116  A    between atoms: _284  and  _285
REMARK  117  A    between atoms: _285  and  _286
REMARK  118  A    between atoms: _291  and  _293
REMARK  119  A    between atoms: _293  and  _294
REMARK  120  A    between atoms: _293  and  _296
REMARK  121  A    between atoms: _299  and  _301
REMARK  122  A    between atoms: _301  and  _302
REMARK  123  A    between atoms: _301  and  _304
REMARK  124  A    between atoms: _304  and  _305
REMARK  125  A    between atoms: _305  and  _306
REMARK  126  A    between atoms: _306  and  _307
REMARK  127  A    between atoms: _307  and  _308
REMARK  128  A    between atoms: _312  and  _314
REMARK  129  A    between atoms: _314  and  _315
REMARK  130  A    between atoms: _314  and  _317
REMARK  131  A    between atoms: _317  and  _318
REMARK  132  A    between atoms: _320  and  _322
REMARK  133  A    between atoms: _322  and  _323
REMARK  134  A    between atoms: _326  and  _328
REMARK  135  A    between atoms: _328  and  _329
REMARK  136  A    between atoms: _328  and  _331
REMARK  137  A    between atoms: _331  and  _332
REMARK  138  A    between atoms: _335  and  _337
REMARK  139  A    between atoms: _337  and  _338
REMARK  140  A    between atoms: _337  and  _340
REMARK  141  A    between atoms: _340  and  _341
REMARK  142  A    between atoms: _341  and  _342
REMARK  143  A    between atoms: _342  and  _343
REMARK  144  A    between atoms: _352  and  _354
REMARK  145  A    between atoms: _354  and  _355
REMARK  146  A    between atoms: _354  and  _357
REMARK  147  A    between atoms: _357  and  _358
REMARK  148  A    between atoms: _361  and  _363
REMARK  149  A    between atoms: _363  and  _364
REMARK  150  A    between atoms: _363  and  _366
REMARK  151  A    between atoms: _366  and  _367
REMARK  152  A    between atoms: _372  and  _374
REMARK  153  A    between atoms: _374  and  _375
REMARK  154  A    between atoms: _374  and  _377
REMARK  155  A    between atoms: _377  and  _378
REMARK  156  A    between atoms: _381  and  _383
REMARK  157  A    between atoms: _383  and  _384
REMARK  158  A    between atoms: _383  and  _386
REMARK  159  A    between atoms: _386  and  _387
REMARK  160  A    between atoms: _390  and  _392
REMARK  161  A    between atoms: _392  and  _393
REMARK  162  A    between atoms: _392  and  _395
REMARK  163  A    between atoms: _395  and  _396
REMARK  164  A    between atoms: _398  and  _400
REMARK  165  A    between atoms: _400  and  _401
REMARK  166  A    between atoms: _400  and  _403
REMARK  167  A    between atoms: _403  and  _404
REMARK  168  A    between atoms: _404  and  _405
REMARK  169  A    between atoms: _405  and  _406
REMARK  170  A    between atoms: _415  and  _417
REMARK  171  A    between atoms: _417  and  _418
REMARK  172  A    between atoms: _422  and  _423
REMARK  173  A    between atoms: _428  and  _430
REMARK  174  A    between atoms: _430  and  _431
REMARK  175  A    between atoms: _430  and  _433
REMARK  176  A    between atoms: _433  and  _434
REMARK  177  A    between atoms: _434  and  _435
REMARK  178  A    between atoms: _437  and  _439
REMARK  179  A    between atoms: _439  and  _440
REMARK  180  A    between atoms: _439  and  _442
REMARK  181  A    between atoms: _442  and  _443
REMARK  182  A    between atoms: _446  and  _448
REMARK  183  A    between atoms: _448  and  _449
REMARK  184  A    between atoms: _448  and  _451
REMARK  185  A    between atoms: _451  and  _452
REMARK  186  A    between atoms: _455  and  _457
REMARK  187  A    between atoms: _457  and  _458
REMARK  188  A    between atoms: _457  and  _460
REMARK  189  A    between atoms: _460  and  _461
REMARK  190  A    between atoms: _461  and  _462
REMARK  191  A    between atoms: _465  and  _467
REMARK  192  A    between atoms: _467  and  _468
REMARK  193  A    between atoms: _467  and  _470
REMARK  194  A    between atoms: _470  and  _471
REMARK  195  A    between atoms: _471  and  _472
REMARK  196  A    between atoms: _475  and  _477
REMARK  197  A    between atoms: _477  and  _478
REMARK  198  A    between atoms: _477  and  _480
REMARK  199  A    between atoms: _480  and  _481
REMARK  200  A    between atoms: _484  and  _486
REMARK  201  A    between atoms: _486  and  _487
REMARK  202  A    between atoms: _486  and  _489
REMARK  203  A    between atoms: _492  and  _494
REMARK  204  A    between atoms: _494  and  _495
REMARK  205  A    between atoms: _494  and  _497
REMARK  206  A    between atoms: _497  and  _498
REMARK  207  A    between atoms: _498  and  _499
REMARK  208  A    between atoms: _499  and  _500
REMARK  209  A    between atoms: _500  and  _501
REMARK  210  A    between atoms: _505  and  _507
REMARK  211  A    between atoms: _507  and  _508
REMARK  212  A    between atoms: _507  and  _510
REMARK  213  A    between atoms: _510  and  _511
REMARK  214  A    between atoms: _511  and  _512
REMARK  215  A    between atoms: _515  and  _517
REMARK  216  A    between atoms: _517  and  _518
REMARK  217  A    between atoms: _517  and  _520
REMARK  218  A    between atoms: _520  and  _521
REMARK  219  A    between atoms: _523  and  _525
REMARK  220  A    between atoms: _525  and  _526
REMARK  221  A    between atoms: _525  and  _528
REMARK  222  A    between atoms: _528  and  _529
REMARK  223  A    between atoms: _529  and  _530
REMARK  224  A    between atoms: _530  and  _531
REMARK  225  A    between atoms: _540  and  _542
REMARK  226  A    between atoms: _542  and  _543
REMARK  227  A    between atoms: _542  and  _545
REMARK  228  A    between atoms: _545  and  _546
REMARK  229  A    between atoms: _549  and  _551
REMARK  230  A    between atoms: _551  and  _552
REMARK  231  A    between atoms: _551  and  _554
REMARK  232  A    between atoms: _554  and  _555
REMARK  233  A    between atoms: _560  and  _562
REMARK  234  A    between atoms: _562  and  _563
REMARK  235  A    between atoms: _562  and  _565
REMARK  236  A    between atoms: _565  and  _566
REMARK  237  A    between atoms: _566  and  _567
REMARK  238  A    between atoms: _567  and  _568
REMARK  239  A    between atoms: _577  and  _579
REMARK  240  A    between atoms: _579  and  _580
REMARK  241  A    between atoms: _579  and  _582
REMARK  242  A    between atoms: _582  and  _583
REMARK  243  A    between atoms: _586  and  _588
REMARK  244  A    between atoms: _588  and  _589
REMARK  245  A    between atoms: _588  and  _591
REMARK  246  A    between atoms: _591  and  _592
REMARK  247  A    between atoms: _595  and  _597
REMARK  248  A    between atoms: _597  and  _598
REMARK  249  A    between atoms: _597  and  _600
REMARK  250  A    between atoms: _600  and  _601
REMARK                            x       y       z     vdW  Elec       q    Type
REMARK                         _______ _______ _______ _____ _____    ______ ____
ROOT
ATOM      1  O   HOH     1    -129.884  38.770 125.210  0.00  0.00    +0.000 OA
ENDROOT
TORSDOF 0
REMARK  Name = ../refined-set-2016/2pqb/2pqb_pocket.pdb
REMARK  250 active torsions:
REMARK  status: ('A' for Active; 'I' for Inactive)
REMARK    1  A    between atoms: _1  and  _3
REMARK    2  A    between atoms: _3  and  _4
REMARK    3  A    between atoms: _3  and  _6
REMARK    4  A    between atoms: _6  and  _7
REMARK    5  A    between atoms: _10  and  _12
REMARK    6  A    between atoms: _12  and  _13
REMARK    7  A    between atoms: _12  and  _15
REMARK    8  A    between atoms: _15  and  _16
REMARK    9  A    between atoms: _16  and  _17
REMARK   10  A    between atoms: _17  and  _18
REMARK   11  A    between atoms: _18  and  _19
REMARK   12  A    between atoms: _23  and  _25
REMARK   13  A    between atoms: _25  and  _26
REMARK   14  A    between atoms: _25  and  _28
REMARK   15  A    between atoms: _28  and  _29
REMARK   16  A    between atoms: _31  and  _33
REMARK   17  A    between atoms: _33  and  _34
REMARK   18  A    between atoms: _33  and  _36
REMARK   19  A    between atoms: _36  and  _37
REMARK   20  A    between atoms: _40  and  _42
REMARK   21  A    between atoms: _42  and  _43
REMARK   22  A    between atoms: _42  and  _45
REMARK   23  A    between atoms: _45  and  _46
REMARK   24  A    between atoms: _48  and  _50
REMARK   25  A    between atoms: _50  and  _51
REMARK   26  A    between atoms: _50  and  _53
REMARK   27  A    between atoms: _53  and  _54
REMARK   28  A    between atoms: _59  and  _61
REMARK   29  A    between atoms: _61  and  _62
REMARK   30  A    between atoms: _61  and  _64
REMARK   31  A    between atoms: _64  and  _65
REMARK   32  A    between atoms: _65  and  _66
REMARK   33  A    between atoms: _66  and  _67
REMARK   34  A    between atoms: _76  and  _78
REMARK   35  A    between atoms: _78  and  _79
REMARK   36  A    between atoms: _78  and  _81
REMARK   37  A    between atoms: _81  and  _82
REMARK   38  A    between atoms: _85  and  _87
REMARK   39  A    between atoms: _87  and  _88
REMARK   40  A    between atoms: _87  and  _90
REMARK   41  A    between atoms: _90  and  _91
REMARK   42  A    between atoms: _94  and  _96
REMARK   43  A    between atoms: _96  and  _97
REMARK   44  A    between atoms: _96  and  _99
REMARK   45  A    between atoms: _99  and  _100
REMARK   46  A    between atoms: _106  and  _108
REMARK   47  A    between atoms: _108  and  _109
REMARK   48  A    between atoms: _108  and  _111
REMARK   49  A    between atoms: _111  and  _112
REMARK   50  A    between atoms: _117  and  _119
REMARK   51  A    between atoms: _119  and  _120
REMARK   52  A    between atoms: _123  and  _125
REMARK   53  A    between atoms: _125  and  _126
REMARK   54  A    between atoms: _129  and  _131
REMARK   55  A    between atoms: _131  and  _132
REMARK   56  A    between atoms: _131  and  _134
REMARK   57  A    between atoms: _134  and  _135
REMARK   58  A    between atoms: _138  and  _140
REMARK   59  A    between atoms: _140  and  _141
REMARK   60  A    between atoms: _143  and  _145
REMARK   61  A    between atoms: _145  and  _146
REMARK   62  A    between atoms: _145  and  _148
REMARK   63  A    between atoms: _150  and  _152
REMARK   64  A    between atoms: _152  and  _153
REMARK   65  A    between atoms: _152  and  _155
REMARK   66  A    between atoms: _155  and  _156
REMARK   67  A    between atoms: _156  and  _157
REMARK   68  A    between atoms: _157  and  _158
REMARK   69  A    between atoms: _167  and  _169
REMARK   70  A    between atoms: _169  and  _170
REMARK   71  A    between atoms: _169  and  _172
REMARK   72  A    between atoms: _172  and  _173
REMARK   73  A    between atoms: _176  and  _178
REMARK   74  A    between atoms: _178  and  _179
REMARK   75  A    between atoms: _178  and  _181
REMARK   76  A    between atoms: _181  and  _182
REMARK   77  A    between atoms: _184  and  _186
REMARK   78  A    between atoms: _186  and  _187
REMARK   79  A    between atoms: _186  and  _189
REMARK   80  A    between atoms: _189  and  _190
REMARK   81  A    between atoms: _193  and  _195
REMARK   82  A    between atoms: _195  and  _196
REMARK   83  A    between atoms: _195  and  _198
REMARK   84  A    between atoms: _198  and  _199
REMARK   85  A    between atoms: _199  and  _200
REMARK   86  A    between atoms: _200  and  _201
REMARK   87  A    between atoms: _211  and  _212
REMARK   88  A    between atoms: _217  and  _219
REMARK   89  A    between atoms: _219  and  _220
REMARK   90  A    between atoms: _219  and  _222
REMARK   91  A    between atoms: _222  and  _223
REMARK   92  A    between atoms: _223  and  _224
REMARK   93  A    between atoms: _224  and  _225
REMARK   94  A    between atoms: _234  and  _236
REMARK   95  A    between atoms: _236  and  _237
REMARK   96  A    between atoms: _236  and  _239
REMARK   97  A    between atoms: _242  and  _244
REMARK   98  A    between atoms: _244  and  _245
REMARK   99  A    between atoms: _244  and  _247
REMARK  100  A    between atoms: _250  and  _252
REMARK  101  A    between atoms: _252  and  _253
REMARK  102  A    between atoms: _252  and  _255
REMARK  103  A    between atoms: _255  and  _256
REMARK  104  A    between atoms: _256  and  _257
REMARK  105  A    between atoms: _259  and  _261
REMARK  106  A    between atoms: _261  and  _262
REMARK  107  A    between atoms: _265  and  _267
REMARK  108  A    between atoms: _267  and  _268
REMARK  109  A    between atoms: _267  and  _270
REMARK  110  A    between atoms: _270  and  _271
REMARK  111  A    between atoms: _273  and  _275
REMARK  112  A    between atoms: _275  and  _276
REMARK  113  A    between atoms: _279  and  _281
REMARK  114  A    between atoms: _281  and  _282
REMARK  115  A    between atoms: _281  and  _284
REMARK  116  A    between atoms: _284  and  _285
REMARK  117  A    between atoms: _285  and  _286
REMARK  118  A    between atoms: _291  and  _293
REMARK  119  A    between atoms: _293  and  _294
REMARK  120  A    between atoms: _293  and  _296
REMARK  121  A    between atoms: _299  and  _301
REMARK  122  A    between atoms: _301  and  _302
REMARK  123  A    between atoms: _301  and  _304
REMARK  124  A    between atoms: _304  and  _305
REMARK  125  A    between atoms: _305  and  _306
REMARK  126  A    between atoms: _306  and  _307
REMARK  127  A    between atoms: _307  and  _308
REMARK  128  A    between atoms: _312  and  _314
REMARK  129  A    between atoms: _314  and  _315
REMARK  130  A    between atoms: _314  and  _317
REMARK  131  A    between atoms: _317  and  _318
REMARK  132  A    between atoms: _320  and  _322
REMARK  133  A    between atoms: _322  and  _323
REMARK  134  A    between atoms: _326  and  _328
REMARK  135  A    between atoms: _328  and  _329
REMARK  136  A    between atoms: _328  and  _331
REMARK  137  A    between atoms: _331  and  _332
REMARK  138  A    between atoms: _335  and  _337
REMARK  139  A    between atoms: _337  and  _338
REMARK  140  A    between atoms: _337  and  _340
REMARK  141  A    between atoms: _340  and  _341
REMARK  142  A    between atoms: _341  and  _342
REMARK  143  A    between atoms: _342  and  _343
REMARK  144  A    between atoms: _352  and  _354
REMARK  145  A    between atoms: _354  and  _355
REMARK  146  A    between atoms: _354  and  _357
REMARK  147  A    between atoms: _357  and  _358
REMARK  148  A    between atoms: _361  and  _363
REMARK  149  A    between atoms: _363  and  _364
REMARK  150  A    between atoms: _363  and  _366
REMARK  151  A    between atoms: _366  and  _367
REMARK  152  A    between atoms: _372  and  _374
REMARK  153  A    between atoms: _374  and  _375
REMARK  154  A    between atoms: _374  and  _377
REMARK  155  A    between atoms: _377  and  _378
REMARK  156  A    between atoms: _381  and  _383
REMARK  157  A    between atoms: _383  and  _384
REMARK  158  A    between atoms: _383  and  _386
REMARK  159  A    between atoms: _386  and  _387
REMARK  160  A    between atoms: _390  and  _392
REMARK  161  A    between atoms: _392  and  _393
REMARK  162  A    between atoms: _392  and  _395
REMARK  163  A    between atoms: _395  and  _396
REMARK  164  A    between atoms: _398  and  _400
REMARK  165  A    between atoms: _400  and  _401
REMARK  166  A    between atoms: _400  and  _403
REMARK  167  A    between atoms: _403  and  _404
REMARK  168  A    between atoms: _404  and  _405
REMARK  169  A    between atoms: _405  and  _406
REMARK  170  A    between atoms: _415  and  _417
REMARK  171  A    between atoms: _417  and  _418
REMARK  172  A    between atoms: _422  and  _423
REMARK  173  A    between atoms: _428  and  _430
REMARK  174  A    between atoms: _430  and  _431
REMARK  175  A    between atoms: _430  and  _433
REMARK  176  A    between atoms: _433  and  _434
REMARK  177  A    between atoms: _434  and  _435
REMARK  178  A    between atoms: _437  and  _439
REMARK  179  A    between atoms: _439  and  _440
REMARK  180  A    between atoms: _439  and  _442
REMARK  181  A    between atoms: _442  and  _443
REMARK  182  A    between atoms: _446  and  _448
REMARK  183  A    between atoms: _448  and  _449
REMARK  184  A    between atoms: _448  and  _451
REMARK  185  A    between atoms: _451  and  _452
REMARK  186  A    between atoms: _455  and  _457
REMARK  187  A    between atoms: _457  and  _458
REMARK  188  A    between atoms: _457  and  _460
REMARK  189  A    between atoms: _460  and  _461
REMARK  190  A    between atoms: _461  and  _462
REMARK  191  A    between atoms: _465  and  _467
REMARK  192  A    between atoms: _467  and  _468
REMARK  193  A    between atoms: _467  and  _470
REMARK  194  A    between atoms: _470  and  _471
REMARK  195  A    between atoms: _471  and  _472
REMARK  196  A    between atoms: _475  and  _477
REMARK  197  A    between atoms: _477  and  _478
REMARK  198  A    between atoms: _477  and  _480
REMARK  199  A    between atoms: _480  and  _481
REMARK  200  A    between atoms: _484  and  _486
REMARK  201  A    between atoms: _486  and  _487
REMARK  202  A    between atoms: _486  and  _489
REMARK  203  A    between atoms: _492  and  _494
REMARK  204  A    between atoms: _494  and  _495
REMARK  205  A    between atoms: _494  and  _497
REMARK  206  A    between atoms: _497  and  _498
REMARK  207  A    between atoms: _498  and  _499
REMARK  208  A    between atoms: _499  and  _500
REMARK  209  A    between atoms: _500  and  _501
REMARK  210  A    between atoms: _505  and  _507
REMARK  211  A    between atoms: _507  and  _508
REMARK  212  A    between atoms: _507  and  _510
REMARK  213  A    between atoms: _510  and  _511
REMARK  214  A    between atoms: _511  and  _512
REMARK  215  A    between atoms: _515  and  _517
REMARK  216  A    between atoms: _517  and  _518
REMARK  217  A    between atoms: _517  and  _520
REMARK  218  A    between atoms: _520  and  _521
REMARK  219  A    between atoms: _523  and  _525
REMARK  220  A    between atoms: _525  and  _526
REMARK  221  A    between atoms: _525  and  _528
REMARK  222  A    between atoms: _528  and  _529
REMARK  223  A    between atoms: _529  and  _530
REMARK  224  A    between atoms: _530  and  _531
REMARK  225  A    between atoms: _540  and  _542
REMARK  226  A    between atoms: _542  and  _543
REMARK  227  A    between atoms: _542  and  _545
REMARK  228  A    between atoms: _545  and  _546
REMARK  229  A    between atoms: _549  and  _551
REMARK  230  A    between atoms: _551  and  _552
REMARK  231  A    between atoms: _551  and  _554
REMARK  232  A    between atoms: _554  and  _555
REMARK  233  A    between atoms: _560  and  _562
REMARK  234  A    between atoms: _562  and  _563
REMARK  235  A    between atoms: _562  and  _565
REMARK  236  A    between atoms: _565  and  _566
REMARK  237  A    between atoms: _566  and  _567
REMARK  238  A    between atoms: _567  and  _568
REMARK  239  A    between atoms: _577  and  _579
REMARK  240  A    between atoms: _579  and  _580
REMARK  241  A    between atoms: _579  and  _582
REMARK  242  A    between atoms: _582  and  _583
REMARK  243  A    between atoms: _586  and  _588
REMARK  244  A    between atoms: _588  and  _589
REMARK  245  A    between atoms: _588  and  _591
REMARK  246  A    between atoms: _591  and  _592
REMARK  247  A    between atoms: _595  and  _597
REMARK  248  A    between atoms: _597  and  _598
REMARK  249  A    between atoms: _597  and  _600
REMARK  250  A    between atoms: _600  and  _601
REMARK                            x       y       z     vdW  Elec       q    Type
REMARK                         _______ _______ _______ _____ _____    ______ ____
ROOT
ATOM      1  O   HOH     1    -131.315  27.567 131.958  0.00  0.00    +0.000 OA
ENDROOT
TORSDOF 0
REMARK  Name = ../refined-set-2016/2pqb/2pqb_pocket.pdb
REMARK  250 active torsions:
REMARK  status: ('A' for Active; 'I' for Inactive)
REMARK    1  A    between atoms: _1  and  _3
REMARK    2  A    between atoms: _3  and  _4
REMARK    3  A    between atoms: _3  and  _6
REMARK    4  A    between atoms: _6  and  _7
REMARK    5  A    between atoms: _10  and  _12
REMARK    6  A    between atoms: _12  and  _13
REMARK    7  A    between atoms: _12  and  _15
REMARK    8  A    between atoms: _15  and  _16
REMARK    9  A    between atoms: _16  and  _17
REMARK   10  A    between atoms: _17  and  _18
REMARK   11  A    between atoms: _18  and  _19
REMARK   12  A    between atoms: _23  and  _25
REMARK   13  A    between atoms: _25  and  _26
REMARK   14  A    between atoms: _25  and  _28
REMARK   15  A    between atoms: _28  and  _29
REMARK   16  A    between atoms: _31  and  _33
REMARK   17  A    between atoms: _33  and  _34
REMARK   18  A    between atoms: _33  and  _36
REMARK   19  A    between atoms: _36  and  _37
REMARK   20  A    between atoms: _40  and  _42
REMARK   21  A    between atoms: _42  and  _43
REMARK   22  A    between atoms: _42  and  _45
REMARK   23  A    between atoms: _45  and  _46
REMARK   24  A    between atoms: _48  and  _50
REMARK   25  A    between atoms: _50  and  _51
REMARK   26  A    between atoms: _50  and  _53
REMARK   27  A    between atoms: _53  and  _54
REMARK   28  A    between atoms: _59  and  _61
REMARK   29  A    between atoms: _61  and  _62
REMARK   30  A    between atoms: _61  and  _64
REMARK   31  A    between atoms: _64  and  _65
REMARK   32  A    between atoms: _65  and  _66
REMARK   33  A    between atoms: _66  and  _67
REMARK   34  A    between atoms: _76  and  _78
REMARK   35  A    between atoms: _78  and  _79
REMARK   36  A    between atoms: _78  and  _81
REMARK   37  A    between atoms: _81  and  _82
REMARK   38  A    between atoms: _85  and  _87
REMARK   39  A    between atoms: _87  and  _88
REMARK   40  A    between atoms: _87  and  _90
REMARK   41  A    between atoms: _90  and  _91
REMARK   42  A    between atoms: _94  and  _96
REMARK   43  A    between atoms: _96  and  _97
REMARK   44  A    between atoms: _96  and  _99
REMARK   45  A    between atoms: _99  and  _100
REMARK   46  A    between atoms: _106  and  _108
REMARK   47  A    between atoms: _108  and  _109
REMARK   48  A    between atoms: _108  and  _111
REMARK   49  A    between atoms: _111  and  _112
REMARK   50  A    between atoms: _117  and  _119
REMARK   51  A    between atoms: _119  and  _120
REMARK   52  A    between atoms: _123  and  _125
REMARK   53  A    between atoms: _125  and  _126
REMARK   54  A    between atoms: _129  and  _131
REMARK   55  A    between atoms: _131  and  _132
REMARK   56  A    between atoms: _131  and  _134
REMARK   57  A    between atoms: _134  and  _135
REMARK   58  A    between atoms: _138  and  _140
REMARK   59  A    between atoms: _140  and  _141
REMARK   60  A    between atoms: _143  and  _145
REMARK   61  A    between atoms: _145  and  _146
REMARK   62  A    between atoms: _145  and  _148
REMARK   63  A    between atoms: _150  and  _152
REMARK   64  A    between atoms: _152  and  _153
REMARK   65  A    between atoms: _152  and  _155
REMARK   66  A    between atoms: _155  and  _156
REMARK   67  A    between atoms: _156  and  _157
REMARK   68  A    between atoms: _157  and  _158
REMARK   69  A    between atoms: _167  and  _169
REMARK   70  A    between atoms: _169  and  _170
REMARK   71  A    between atoms: _169  and  _172
REMARK   72  A    between atoms: _172  and  _173
REMARK   73  A    between atoms: _176  and  _178
REMARK   74  A    between atoms: _178  and  _179
REMARK   75  A    between atoms: _178  and  _181
REMARK   76  A    between atoms: _181  and  _182
REMARK   77  A    between atoms: _184  and  _186
REMARK   78  A    between atoms: _186  and  _187
REMARK   79  A    between atoms: _186  and  _189
REMARK   80  A    between atoms: _189  and  _190
REMARK   81  A    between atoms: _193  and  _195
REMARK   82  A    between atoms: _195  and  _196
REMARK   83  A    between atoms: _195  and  _198
REMARK   84  A    between atoms: _198  and  _199
REMARK   85  A    between atoms: _199  and  _200
REMARK   86  A    between atoms: _200  and  _201
REMARK   87  A    between atoms: _211  and  _212
REMARK   88  A    between atoms: _217  and  _219
REMARK   89  A    between atoms: _219  and  _220
REMARK   90  A    between atoms: _219  and  _222
REMARK   91  A    between atoms: _222  and  _223
REMARK   92  A    between atoms: _223  and  _224
REMARK   93  A    between atoms: _224  and  _225
REMARK   94  A    between atoms: _234  and  _236
REMARK   95  A    between atoms: _236  and  _237
REMARK   96  A    between atoms: _236  and  _239
REMARK   97  A    between atoms: _242  and  _244
REMARK   98  A    between atoms: _244  and  _245
REMARK   99  A    between atoms: _244  and  _247
REMARK  100  A    between atoms: _250  and  _252
REMARK  101  A    between atoms: _252  and  _253
REMARK  102  A    between atoms: _252  and  _255
REMARK  103  A    between atoms: _255  and  _256
REMARK  104  A    between atoms: _256  and  _257
REMARK  105  A    between atoms: _259  and  _261
REMARK  106  A    between atoms: _261  and  _262
REMARK  107  A    between atoms: _265  and  _267
REMARK  108  A    between atoms: _267  and  _268
REMARK  109  A    between atoms: _267  and  _270
REMARK  110  A    between atoms: _270  and  _271
REMARK  111  A    between atoms: _273  and  _275
REMARK  112  A    between atoms: _275  and  _276
REMARK  113  A    between atoms: _279  and  _281
REMARK  114  A    between atoms: _281  and  _282
REMARK  115  A    between atoms: _281  and  _284
REMARK  116  A    between atoms: _284  and  _285
REMARK  117  A    between atoms: _285  and  _286
REMARK  118  A    between atoms: _291  and  _293
REMARK  119  A    between atoms: _293  and  _294
REMARK  120  A    between atoms: _293  and  _296
REMARK  121  A    between atoms: _299  and  _301
REMARK  122  A    between atoms: _301  and  _302
REMARK  123  A    between atoms: _301  and  _304
REMARK  124  A    between atoms: _304  and  _305
REMARK  125  A    between atoms: _305  and  _306
REMARK  126  A    between atoms: _306  and  _307
REMARK  127  A    between atoms: _307  and  _308
REMARK  128  A    between atoms: _312  and  _314
REMARK  129  A    between atoms: _314  and  _315
REMARK  130  A    between atoms: _314  and  _317
REMARK  131  A    between atoms: _317  and  _318
REMARK  132  A    between atoms: _320  and  _322
REMARK  133  A    between atoms: _322  and  _323
REMARK  134  A    between atoms: _326  and  _328
REMARK  135  A    between atoms: _328  and  _329
REMARK  136  A    between atoms: _328  and  _331
REMARK  137  A    between atoms: _331  and  _332
REMARK  138  A    between atoms: _335  and  _337
REMARK  139  A    between atoms: _337  and  _338
REMARK  140  A    between atoms: _337  and  _340
REMARK  141  A    between atoms: _340  and  _341
REMARK  142  A    between atoms: _341  and  _342
REMARK  143  A    between atoms: _342  and  _343
REMARK  144  A    between atoms: _352  and  _354
REMARK  145  A    between atoms: _354  and  _355
REMARK  146  A    between atoms: _354  and  _357
REMARK  147  A    between atoms: _357  and  _358
REMARK  148  A    between atoms: _361  and  _363
REMARK  149  A    between atoms: _363  and  _364
REMARK  150  A    between atoms: _363  and  _366
REMARK  151  A    between atoms: _366  and  _367
REMARK  152  A    between atoms: _372  and  _374
REMARK  153  A    between atoms: _374  and  _375
REMARK  154  A    between atoms: _374  and  _377
REMARK  155  A    between atoms: _377  and  _378
REMARK  156  A    between atoms: _381  and  _383
REMARK  157  A    between atoms: _383  and  _384
REMARK  158  A    between atoms: _383  and  _386
REMARK  159  A    between atoms: _386  and  _387
REMARK  160  A    between atoms: _390  and  _392
REMARK  161  A    between atoms: _392  and  _393
REMARK  162  A    between atoms: _392  and  _395
REMARK  163  A    between atoms: _395  and  _396
REMARK  164  A    between atoms: _398  and  _400
REMARK  165  A    between atoms: _400  and  _401
REMARK  166  A    between atoms: _400  and  _403
REMARK  167  A    between atoms: _403  and  _404
REMARK  168  A    between atoms: _404  and  _405
REMARK  169  A    between atoms: _405  and  _406
REMARK  170  A    between atoms: _415  and  _417
REMARK  171  A    between atoms: _417  and  _418
REMARK  172  A    between atoms: _422  and  _423
REMARK  173  A    between atoms: _428  and  _430
REMARK  174  A    between atoms: _430  and  _431
REMARK  175  A    between atoms: _430  and  _433
REMARK  176  A    between atoms: _433  and  _434
REMARK  177  A    between atoms: _434  and  _435
REMARK  178  A    between atoms: _437  and  _439
REMARK  179  A    between atoms: _439  and  _440
REMARK  180  A    between atoms: _439  and  _442
REMARK  181  A    between atoms: _442  and  _443
REMARK  182  A    between atoms: _446  and  _448
REMARK  183  A    between atoms: _448  and  _449
REMARK  184  A    between atoms: _448  and  _451
REMARK  185  A    between atoms: _451  and  _452
REMARK  186  A    between atoms: _455  and  _457
REMARK  187  A    between atoms: _457  and  _458
REMARK  188  A    between atoms: _457  and  _460
REMARK  189  A    between atoms: _460  and  _461
REMARK  190  A    between atoms: _461  and  _462
REMARK  191  A    between atoms: _465  and  _467
REMARK  192  A    between atoms: _467  and  _468
REMARK  193  A    between atoms: _467  and  _470
REMARK  194  A    between atoms: _470  and  _471
REMARK  195  A    between atoms: _471  and  _472
REMARK  196  A    between atoms: _475  and  _477
REMARK  197  A    between atoms: _477  and  _478
REMARK  198  A    between atoms: _477  and  _480
REMARK  199  A    between atoms: _480  and  _481
REMARK  200  A    between atoms: _484  and  _486
REMARK  201  A    between atoms: _486  and  _487
REMARK  202  A    between atoms: _486  and  _489
REMARK  203  A    between atoms: _492  and  _494
REMARK  204  A    between atoms: _494  and  _495
REMARK  205  A    between atoms: _494  and  _497
REMARK  206  A    between atoms: _497  and  _498
REMARK  207  A    between atoms: _498  and  _499
REMARK  208  A    between atoms: _499  and  _500
REMARK  209  A    between atoms: _500  and  _501
REMARK  210  A    between atoms: _505  and  _507
REMARK  211  A    between atoms: _507  and  _508
REMARK  212  A    between atoms: _507  and  _510
REMARK  213  A    between atoms: _510  and  _511
REMARK  214  A    between atoms: _511  and  _512
REMARK  215  A    between atoms: _515  and  _517
REMARK  216  A    between atoms: _517  and  _518
REMARK  217  A    between atoms: _517  and  _520
REMARK  218  A    between atoms: _520  and  _521
REMARK  219  A    between atoms: _523  and  _525
REMARK  220  A    between atoms: _525  and  _526
REMARK  221  A    between atoms: _525  and  _528
REMARK  222  A    between atoms: _528  and  _529
REMARK  223  A    between atoms: _529  and  _530
REMARK  224  A    between atoms: _530  and  _531
REMARK  225  A    between atoms: _540  and  _542
REMARK  226  A    between atoms: _542  and  _543
REMARK  227  A    between atoms: _542  and  _545
REMARK  228  A    between atoms: _545  and  _546
REMARK  229  A    between atoms: _549  and  _551
REMARK  230  A    between atoms: _551  and  _552
REMARK  231  A    between atoms: _551  and  _554
REMARK  232  A    between atoms: _554  and  _555
REMARK  233  A    between atoms: _560  and  _562
REMARK  234  A    between atoms: _562  and  _563
REMARK  235  A    between atoms: _562  and  _565
REMARK  236  A    between atoms: _565  and  _566
REMARK  237  A    between atoms: _566  and  _567
REMARK  238  A    between atoms: _567  and  _568
REMARK  239  A    between atoms: _577  and  _579
REMARK  240  A    between atoms: _579  and  _580
REMARK  241  A    between atoms: _579  and  _582
REMARK  242  A    between atoms: _582  and  _583
REMARK  243  A    between atoms: _586  and  _588
REMARK  244  A    between atoms: _588  and  _589
REMARK  245  A    between atoms: _588  and  _591
REMARK  246  A    between atoms: _591  and  _592
REMARK  247  A    between atoms: _595  and  _597
REMARK  248  A    between atoms: _597  and  _598
REMARK  249  A    between atoms: _597  and  _600
REMARK  250  A    between atoms: _600  and  _601
REMARK                            x       y       z     vdW  Elec       q    Type
REMARK                         _______ _______ _______ _____ _____    ______ ____
ROOT
ATOM      1  O   HOH     1    -120.359  34.463 120.459  0.00  0.00    +0.000 OA
ENDROOT
TORSDOF 0
REMARK  Name = ../refined-set-2016/2pqb/2pqb_pocket.pdb
REMARK  250 active torsions:
REMARK  status: ('A' for Active; 'I' for Inactive)
REMARK    1  A    between atoms: _1  and  _3
REMARK    2  A    between atoms: _3  and  _4
REMARK    3  A    between atoms: _3  and  _6
REMARK    4  A    between atoms: _6  and  _7
REMARK    5  A    between atoms: _10  and  _12
REMARK    6  A    between atoms: _12  and  _13
REMARK    7  A    between atoms: _12  and  _15
REMARK    8  A    between atoms: _15  and  _16
REMARK    9  A    between atoms: _16  and  _17
REMARK   10  A    between atoms: _17  and  _18
REMARK   11  A    between atoms: _18  and  _19
REMARK   12  A    between atoms: _23  and  _25
REMARK   13  A    between atoms: _25  and  _26
REMARK   14  A    between atoms: _25  and  _28
REMARK   15  A    between atoms: _28  and  _29
REMARK   16  A    between atoms: _31  and  _33
REMARK   17  A    between atoms: _33  and  _34
REMARK   18  A    between atoms: _33  and  _36
REMARK   19  A    between atoms: _36  and  _37
REMARK   20  A    between atoms: _40  and  _42
REMARK   21  A    between atoms: _42  and  _43
REMARK   22  A    between atoms: _42  and  _45
REMARK   23  A    between atoms: _45  and  _46
REMARK   24  A    between atoms: _48  and  _50
REMARK   25  A    between atoms: _50  and  _51
REMARK   26  A    between atoms: _50  and  _53
REMARK   27  A    between atoms: _53  and  _54
REMARK   28  A    between atoms: _59  and  _61
REMARK   29  A    between atoms: _61  and  _62
REMARK   30  A    between atoms: _61  and  _64
REMARK   31  A    between atoms: _64  and  _65
REMARK   32  A    between atoms: _65  and  _66
REMARK   33  A    between atoms: _66  and  _67
REMARK   34  A    between atoms: _76  and  _78
REMARK   35  A    between atoms: _78  and  _79
REMARK   36  A    between atoms: _78  and  _81
REMARK   37  A    between atoms: _81  and  _82
REMARK   38  A    between atoms: _85  and  _87
REMARK   39  A    between atoms: _87  and  _88
REMARK   40  A    between atoms: _87  and  _90
REMARK   41  A    between atoms: _90  and  _91
REMARK   42  A    between atoms: _94  and  _96
REMARK   43  A    between atoms: _96  and  _97
REMARK   44  A    between atoms: _96  and  _99
REMARK   45  A    between atoms: _99  and  _100
REMARK   46  A    between atoms: _106  and  _108
REMARK   47  A    between atoms: _108  and  _109
REMARK   48  A    between atoms: _108  and  _111
REMARK   49  A    between atoms: _111  and  _112
REMARK   50  A    between atoms: _117  and  _119
REMARK   51  A    between atoms: _119  and  _120
REMARK   52  A    between atoms: _123  and  _125
REMARK   53  A    between atoms: _125  and  _126
REMARK   54  A    between atoms: _129  and  _131
REMARK   55  A    between atoms: _131  and  _132
REMARK   56  A    between atoms: _131  and  _134
REMARK   57  A    between atoms: _134  and  _135
REMARK   58  A    between atoms: _138  and  _140
REMARK   59  A    between atoms: _140  and  _141
REMARK   60  A    between atoms: _143  and  _145
REMARK   61  A    between atoms: _145  and  _146
REMARK   62  A    between atoms: _145  and  _148
REMARK   63  A    between atoms: _150  and  _152
REMARK   64  A    between atoms: _152  and  _153
REMARK   65  A    between atoms: _152  and  _155
REMARK   66  A    between atoms: _155  and  _156
REMARK   67  A    between atoms: _156  and  _157
REMARK   68  A    between atoms: _157  and  _158
REMARK   69  A    between atoms: _167  and  _169
REMARK   70  A    between atoms: _169  and  _170
REMARK   71  A    between atoms: _169  and  _172
REMARK   72  A    between atoms: _172  and  _173
REMARK   73  A    between atoms: _176  and  _178
REMARK   74  A    between atoms: _178  and  _179
REMARK   75  A    between atoms: _178  and  _181
REMARK   76  A    between atoms: _181  and  _182
REMARK   77  A    between atoms: _184  and  _186
REMARK   78  A    between atoms: _186  and  _187
REMARK   79  A    between atoms: _186  and  _189
REMARK   80  A    between atoms: _189  and  _190
REMARK   81  A    between atoms: _193  and  _195
REMARK   82  A    between atoms: _195  and  _196
REMARK   83  A    between atoms: _195  and  _198
REMARK   84  A    between atoms: _198  and  _199
REMARK   85  A    between atoms: _199  and  _200
REMARK   86  A    between atoms: _200  and  _201
REMARK   87  A    between atoms: _211  and  _212
REMARK   88  A    between atoms: _217  and  _219
REMARK   89  A    between atoms: _219  and  _220
REMARK   90  A    between atoms: _219  and  _222
REMARK   91  A    between atoms: _222  and  _223
REMARK   92  A    between atoms: _223  and  _224
REMARK   93  A    between atoms: _224  and  _225
REMARK   94  A    between atoms: _234  and  _236
REMARK   95  A    between atoms: _236  and  _237
REMARK   96  A    between atoms: _236  and  _239
REMARK   97  A    between atoms: _242  and  _244
REMARK   98  A    between atoms: _244  and  _245
REMARK   99  A    between atoms: _244  and  _247
REMARK  100  A    between atoms: _250  and  _252
REMARK  101  A    between atoms: _252  and  _253
REMARK  102  A    between atoms: _252  and  _255
REMARK  103  A    between atoms: _255  and  _256
REMARK  104  A    between atoms: _256  and  _257
REMARK  105  A    between atoms: _259  and  _261
REMARK  106  A    between atoms: _261  and  _262
REMARK  107  A    between atoms: _265  and  _267
REMARK  108  A    between atoms: _267  and  _268
REMARK  109  A    between atoms: _267  and  _270
REMARK  110  A    between atoms: _270  and  _271
REMARK  111  A    between atoms: _273  and  _275
REMARK  112  A    between atoms: _275  and  _276
REMARK  113  A    between atoms: _279  and  _281
REMARK  114  A    between atoms: _281  and  _282
REMARK  115  A    between atoms: _281  and  _284
REMARK  116  A    between atoms: _284  and  _285
REMARK  117  A    between atoms: _285  and  _286
REMARK  118  A    between atoms: _291  and  _293
REMARK  119  A    between atoms: _293  and  _294
REMARK  120  A    between atoms: _293  and  _296
REMARK  121  A    between atoms: _299  and  _301
REMARK  122  A    between atoms: _301  and  _302
REMARK  123  A    between atoms: _301  and  _304
REMARK  124  A    between atoms: _304  and  _305
REMARK  125  A    between atoms: _305  and  _306
REMARK  126  A    between atoms: _306  and  _307
REMARK  127  A    between atoms: _307  and  _308
REMARK  128  A    between atoms: _312  and  _314
REMARK  129  A    between atoms: _314  and  _315
REMARK  130  A    between atoms: _314  and  _317
REMARK  131  A    between atoms: _317  and  _318
REMARK  132  A    between atoms: _320  and  _322
REMARK  133  A    between atoms: _322  and  _323
REMARK  134  A    between atoms: _326  and  _328
REMARK  135  A    between atoms: _328  and  _329
REMARK  136  A    between atoms: _328  and  _331
REMARK  137  A    between atoms: _331  and  _332
REMARK  138  A    between atoms: _335  and  _337
REMARK  139  A    between atoms: _337  and  _338
REMARK  140  A    between atoms: _337  and  _340
REMARK  141  A    between atoms: _340  and  _341
REMARK  142  A    between atoms: _341  and  _342
REMARK  143  A    between atoms: _342  and  _343
REMARK  144  A    between atoms: _352  and  _354
REMARK  145  A    between atoms: _354  and  _355
REMARK  146  A    between atoms: _354  and  _357
REMARK  147  A    between atoms: _357  and  _358
REMARK  148  A    between atoms: _361  and  _363
REMARK  149  A    between atoms: _363  and  _364
REMARK  150  A    between atoms: _363  and  _366
REMARK  151  A    between atoms: _366  and  _367
REMARK  152  A    between atoms: _372  and  _374
REMARK  153  A    between atoms: _374  and  _375
REMARK  154  A    between atoms: _374  and  _377
REMARK  155  A    between atoms: _377  and  _378
REMARK  156  A    between atoms: _381  and  _383
REMARK  157  A    between atoms: _383  and  _384
REMARK  158  A    between atoms: _383  and  _386
REMARK  159  A    between atoms: _386  and  _387
REMARK  160  A    between atoms: _390  and  _392
REMARK  161  A    between atoms: _392  and  _393
REMARK  162  A    between atoms: _392  and  _395
REMARK  163  A    between atoms: _395  and  _396
REMARK  164  A    between atoms: _398  and  _400
REMARK  165  A    between atoms: _400  and  _401
REMARK  166  A    between atoms: _400  and  _403
REMARK  167  A    between atoms: _403  and  _404
REMARK  168  A    between atoms: _404  and  _405
REMARK  169  A    between atoms: _405  and  _406
REMARK  170  A    between atoms: _415  and  _417
REMARK  171  A    between atoms: _417  and  _418
REMARK  172  A    between atoms: _422  and  _423
REMARK  173  A    between atoms: _428  and  _430
REMARK  174  A    between atoms: _430  and  _431
REMARK  175  A    between atoms: _430  and  _433
REMARK  176  A    between atoms: _433  and  _434
REMARK  177  A    between atoms: _434  and  _435
REMARK  178  A    between atoms: _437  and  _439
REMARK  179  A    between atoms: _439  and  _440
REMARK  180  A    between atoms: _439  and  _442
REMARK  181  A    between atoms: _442  and  _443
REMARK  182  A    between atoms: _446  and  _448
REMARK  183  A    between atoms: _448  and  _449
REMARK  184  A    between atoms: _448  and  _451
REMARK  185  A    between atoms: _451  and  _452
REMARK  186  A    between atoms: _455  and  _457
REMARK  187  A    between atoms: _457  and  _458
REMARK  188  A    between atoms: _457  and  _460
REMARK  189  A    between atoms: _460  and  _461
REMARK  190  A    between atoms: _461  and  _462
REMARK  191  A    between atoms: _465  and  _467
REMARK  192  A    between atoms: _467  and  _468
REMARK  193  A    between atoms: _467  and  _470
REMARK  194  A    between atoms: _470  and  _471
REMARK  195  A    between atoms: _471  and  _472
REMARK  196  A    between atoms: _475  and  _477
REMARK  197  A    between atoms: _477  and  _478
REMARK  198  A    between atoms: _477  and  _480
REMARK  199  A    between atoms: _480  and  _481
REMARK  200  A    between atoms: _484  and  _486
REMARK  201  A    between atoms: _486  and  _487
REMARK  202  A    between atoms: _486  and  _489
REMARK  203  A    between atoms: _492  and  _494
REMARK  204  A    between atoms: _494  and  _495
REMARK  205  A    between atoms: _494  and  _497
REMARK  206  A    between atoms: _497  and  _498
REMARK  207  A    between atoms: _498  and  _499
REMARK  208  A    between atoms: _499  and  _500
REMARK  209  A    between atoms: _500  and  _501
REMARK  210  A    between atoms: _505  and  _507
REMARK  211  A    between atoms: _507  and  _508
REMARK  212  A    between atoms: _507  and  _510
REMARK  213  A    between atoms: _510  and  _511
REMARK  214  A    between atoms: _511  and  _512
REMARK  215  A    between atoms: _515  and  _517
REMARK  216  A    between atoms: _517  and  _518
REMARK  217  A    between atoms: _517  and  _520
REMARK  218  A    between atoms: _520  and  _521
REMARK  219  A    between atoms: _523  and  _525
REMARK  220  A    between atoms: _525  and  _526
REMARK  221  A    between atoms: _525  and  _528
REMARK  222  A    between atoms: _528  and  _529
REMARK  223  A    between atoms: _529  and  _530
REMARK  224  A    between atoms: _530  and  _531
REMARK  225  A    between atoms: _540  and  _542
REMARK  226  A    between atoms: _542  and  _543
REMARK  227  A    between atoms: _542  and  _545
REMARK  228  A    between atoms: _545  and  _546
REMARK  229  A    between atoms: _549  and  _551
REMARK  230  A    between atoms: _551  and  _552
REMARK  231  A    between atoms: _551  and  _554
REMARK  232  A    between atoms: _554  and  _555
REMARK  233  A    between atoms: _560  and  _562
REMARK  234  A    between atoms: _562  and  _563
REMARK  235  A    between atoms: _562  and  _565
REMARK  236  A    between atoms: _565  and  _566
REMARK  237  A    between atoms: _566  and  _567
REMARK  238  A    between atoms: _567  and  _568
REMARK  239  A    between atoms: _577  and  _579
REMARK  240  A    between atoms: _579  and  _580
REMARK  241  A    between atoms: _579  and  _582
REMARK  242  A    between atoms: _582  and  _583
REMARK  243  A    between atoms: _586  and  _588
REMARK  244  A    between atoms: _588  and  _589
REMARK  245  A    between atoms: _588  and  _591
REMARK  246  A    between atoms: _591  and  _592
REMARK  247  A    between atoms: _595  and  _597
REMARK  248  A    between atoms: _597  and  _598
REMARK  249  A    between atoms: _597  and  _600
REMARK  250  A    between atoms: _600  and  _601
REMARK                            x       y       z     vdW  Elec       q    Type
REMARK                         _______ _______ _______ _____ _____    ______ ____
ROOT
ATOM      1  O   HOH     1    -139.258  25.007 129.541  0.00  0.00    +0.000 OA
ENDROOT
TORSDOF 0
REMARK  Name = ../refined-set-2016/2pqb/2pqb_pocket.pdb
REMARK  250 active torsions:
REMARK  status: ('A' for Active; 'I' for Inactive)
REMARK    1  A    between atoms: _1  and  _3
REMARK    2  A    between atoms: _3  and  _4
REMARK    3  A    between atoms: _3  and  _6
REMARK    4  A    between atoms: _6  and  _7
REMARK    5  A    between atoms: _10  and  _12
REMARK    6  A    between atoms: _12  and  _13
REMARK    7  A    between atoms: _12  and  _15
REMARK    8  A    between atoms: _15  and  _16
REMARK    9  A    between atoms: _16  and  _17
REMARK   10  A    between atoms: _17  and  _18
REMARK   11  A    between atoms: _18  and  _19
REMARK   12  A    between atoms: _23  and  _25
REMARK   13  A    between atoms: _25  and  _26
REMARK   14  A    between atoms: _25  and  _28
REMARK   15  A    between atoms: _28  and  _29
REMARK   16  A    between atoms: _31  and  _33
REMARK   17  A    between atoms: _33  and  _34
REMARK   18  A    between atoms: _33  and  _36
REMARK   19  A    between atoms: _36  and  _37
REMARK   20  A    between atoms: _40  and  _42
REMARK   21  A    between atoms: _42  and  _43
REMARK   22  A    between atoms: _42  and  _45
REMARK   23  A    between atoms: _45  and  _46
REMARK   24  A    between atoms: _48  and  _50
REMARK   25  A    between atoms: _50  and  _51
REMARK   26  A    between atoms: _50  and  _53
REMARK   27  A    between atoms: _53  and  _54
REMARK   28  A    between atoms: _59  and  _61
REMARK   29  A    between atoms: _61  and  _62
REMARK   30  A    between atoms: _61  and  _64
REMARK   31  A    between atoms: _64  and  _65
REMARK   32  A    between atoms: _65  and  _66
REMARK   33  A    between atoms: _66  and  _67
REMARK   34  A    between atoms: _76  and  _78
REMARK   35  A    between atoms: _78  and  _79
REMARK   36  A    between atoms: _78  and  _81
REMARK   37  A    between atoms: _81  and  _82
REMARK   38  A    between atoms: _85  and  _87
REMARK   39  A    between atoms: _87  and  _88
REMARK   40  A    between atoms: _87  and  _90
REMARK   41  A    between atoms: _90  and  _91
REMARK   42  A    between atoms: _94  and  _96
REMARK   43  A    between atoms: _96  and  _97
REMARK   44  A    between atoms: _96  and  _99
REMARK   45  A    between atoms: _99  and  _100
REMARK   46  A    between atoms: _106  and  _108
REMARK   47  A    between atoms: _108  and  _109
REMARK   48  A    between atoms: _108  and  _111
REMARK   49  A    between atoms: _111  and  _112
REMARK   50  A    between atoms: _117  and  _119
REMARK   51  A    between atoms: _119  and  _120
REMARK   52  A    between atoms: _123  and  _125
REMARK   53  A    between atoms: _125  and  _126
REMARK   54  A    between atoms: _129  and  _131
REMARK   55  A    between atoms: _131  and  _132
REMARK   56  A    between atoms: _131  and  _134
REMARK   57  A    between atoms: _134  and  _135
REMARK   58  A    between atoms: _138  and  _140
REMARK   59  A    between atoms: _140  and  _141
REMARK   60  A    between atoms: _143  and  _145
REMARK   61  A    between atoms: _145  and  _146
REMARK   62  A    between atoms: _145  and  _148
REMARK   63  A    between atoms: _150  and  _152
REMARK   64  A    between atoms: _152  and  _153
REMARK   65  A    between atoms: _152  and  _155
REMARK   66  A    between atoms: _155  and  _156
REMARK   67  A    between atoms: _156  and  _157
REMARK   68  A    between atoms: _157  and  _158
REMARK   69  A    between atoms: _167  and  _169
REMARK   70  A    between atoms: _169  and  _170
REMARK   71  A    between atoms: _169  and  _172
REMARK   72  A    between atoms: _172  and  _173
REMARK   73  A    between atoms: _176  and  _178
REMARK   74  A    between atoms: _178  and  _179
REMARK   75  A    between atoms: _178  and  _181
REMARK   76  A    between atoms: _181  and  _182
REMARK   77  A    between atoms: _184  and  _186
REMARK   78  A    between atoms: _186  and  _187
REMARK   79  A    between atoms: _186  and  _189
REMARK   80  A    between atoms: _189  and  _190
REMARK   81  A    between atoms: _193  and  _195
REMARK   82  A    between atoms: _195  and  _196
REMARK   83  A    between atoms: _195  and  _198
REMARK   84  A    between atoms: _198  and  _199
REMARK   85  A    between atoms: _199  and  _200
REMARK   86  A    between atoms: _200  and  _201
REMARK   87  A    between atoms: _211  and  _212
REMARK   88  A    between atoms: _217  and  _219
REMARK   89  A    between atoms: _219  and  _220
REMARK   90  A    between atoms: _219  and  _222
REMARK   91  A    between atoms: _222  and  _223
REMARK   92  A    between atoms: _223  and  _224
REMARK   93  A    between atoms: _224  and  _225
REMARK   94  A    between atoms: _234  and  _236
REMARK   95  A    between atoms: _236  and  _237
REMARK   96  A    between atoms: _236  and  _239
REMARK   97  A    between atoms: _242  and  _244
REMARK   98  A    between atoms: _244  and  _245
REMARK   99  A    between atoms: _244  and  _247
REMARK  100  A    between atoms: _250  and  _252
REMARK  101  A    between atoms: _252  and  _253
REMARK  102  A    between atoms: _252  and  _255
REMARK  103  A    between atoms: _255  and  _256
REMARK  104  A    between atoms: _256  and  _257
REMARK  105  A    between atoms: _259  and  _261
REMARK  106  A    between atoms: _261  and  _262
REMARK  107  A    between atoms: _265  and  _267
REMARK  108  A    between atoms: _267  and  _268
REMARK  109  A    between atoms: _267  and  _270
REMARK  110  A    between atoms: _270  and  _271
REMARK  111  A    between atoms: _273  and  _275
REMARK  112  A    between atoms: _275  and  _276
REMARK  113  A    between atoms: _279  and  _281
REMARK  114  A    between atoms: _281  and  _282
REMARK  115  A    between atoms: _281  and  _284
REMARK  116  A    between atoms: _284  and  _285
REMARK  117  A    between atoms: _285  and  _286
REMARK  118  A    between atoms: _291  and  _293
REMARK  119  A    between atoms: _293  and  _294
REMARK  120  A    between atoms: _293  and  _296
REMARK  121  A    between atoms: _299  and  _301
REMARK  122  A    between atoms: _301  and  _302
REMARK  123  A    between atoms: _301  and  _304
REMARK  124  A    between atoms: _304  and  _305
REMARK  125  A    between atoms: _305  and  _306
REMARK  126  A    between atoms: _306  and  _307
REMARK  127  A    between atoms: _307  and  _308
REMARK  128  A    between atoms: _312  and  _314
REMARK  129  A    between atoms: _314  and  _315
REMARK  130  A    between atoms: _314  and  _317
REMARK  131  A    between atoms: _317  and  _318
REMARK  132  A    between atoms: _320  and  _322
REMARK  133  A    between atoms: _322  and  _323
REMARK  134  A    between atoms: _326  and  _328
REMARK  135  A    between atoms: _328  and  _329
REMARK  136  A    between atoms: _328  and  _331
REMARK  137  A    between atoms: _331  and  _332
REMARK  138  A    between atoms: _335  and  _337
REMARK  139  A    between atoms: _337  and  _338
REMARK  140  A    between atoms: _337  and  _340
REMARK  141  A    between atoms: _340  and  _341
REMARK  142  A    between atoms: _341  and  _342
REMARK  143  A    between atoms: _342  and  _343
REMARK  144  A    between atoms: _352  and  _354
REMARK  145  A    between atoms: _354  and  _355
REMARK  146  A    between atoms: _354  and  _357
REMARK  147  A    between atoms: _357  and  _358
REMARK  148  A    between atoms: _361  and  _363
REMARK  149  A    between atoms: _363  and  _364
REMARK  150  A    between atoms: _363  and  _366
REMARK  151  A    between atoms: _366  and  _367
REMARK  152  A    between atoms: _372  and  _374
REMARK  153  A    between atoms: _374  and  _375
REMARK  154  A    between atoms: _374  and  _377
REMARK  155  A    between atoms: _377  and  _378
REMARK  156  A    between atoms: _381  and  _383
REMARK  157  A    between atoms: _383  and  _384
REMARK  158  A    between atoms: _383  and  _386
REMARK  159  A    between atoms: _386  and  _387
REMARK  160  A    between atoms: _390  and  _392
REMARK  161  A    between atoms: _392  and  _393
REMARK  162  A    between atoms: _392  and  _395
REMARK  163  A    between atoms: _395  and  _396
REMARK  164  A    between atoms: _398  and  _400
REMARK  165  A    between atoms: _400  and  _401
REMARK  166  A    between atoms: _400  and  _403
REMARK  167  A    between atoms: _403  and  _404
REMARK  168  A    between atoms: _404  and  _405
REMARK  169  A    between atoms: _405  and  _406
REMARK  170  A    between atoms: _415  and  _417
REMARK  171  A    between atoms: _417  and  _418
REMARK  172  A    between atoms: _422  and  _423
REMARK  173  A    between atoms: _428  and  _430
REMARK  174  A    between atoms: _430  and  _431
REMARK  175  A    between atoms: _430  and  _433
REMARK  176  A    between atoms: _433  and  _434
REMARK  177  A    between atoms: _434  and  _435
REMARK  178  A    between atoms: _437  and  _439
REMARK  179  A    between atoms: _439  and  _440
REMARK  180  A    between atoms: _439  and  _442
REMARK  181  A    between atoms: _442  and  _443
REMARK  182  A    between atoms: _446  and  _448
REMARK  183  A    between atoms: _448  and  _449
REMARK  184  A    between atoms: _448  and  _451
REMARK  185  A    between atoms: _451  and  _452
REMARK  186  A    between atoms: _455  and  _457
REMARK  187  A    between atoms: _457  and  _458
REMARK  188  A    between atoms: _457  and  _460
REMARK  189  A    between atoms: _460  and  _461
REMARK  190  A    between atoms: _461  and  _462
REMARK  191  A    between atoms: _465  and  _467
REMARK  192  A    between atoms: _467  and  _468
REMARK  193  A    between atoms: _467  and  _470
REMARK  194  A    between atoms: _470  and  _471
REMARK  195  A    between atoms: _471  and  _472
REMARK  196  A    between atoms: _475  and  _477
REMARK  197  A    between atoms: _477  and  _478
REMARK  198  A    between atoms: _477  and  _480
REMARK  199  A    between atoms: _480  and  _481
REMARK  200  A    between atoms: _484  and  _486
REMARK  201  A    between atoms: _486  and  _487
REMARK  202  A    between atoms: _486  and  _489
REMARK  203  A    between atoms: _492  and  _494
REMARK  204  A    between atoms: _494  and  _495
REMARK  205  A    between atoms: _494  and  _497
REMARK  206  A    between atoms: _497  and  _498
REMARK  207  A    between atoms: _498  and  _499
REMARK  208  A    between atoms: _499  and  _500
REMARK  209  A    between atoms: _500  and  _501
REMARK  210  A    between atoms: _505  and  _507
REMARK  211  A    between atoms: _507  and  _508
REMARK  212  A    between atoms: _507  and  _510
REMARK  213  A    between atoms: _510  and  _511
REMARK  214  A    between atoms: _511  and  _512
REMARK  215  A    between atoms: _515  and  _517
REMARK  216  A    between atoms: _517  and  _518
REMARK  217  A    between atoms: _517  and  _520
REMARK  218  A    between atoms: _520  and  _521
REMARK  219  A    between atoms: _523  and  _525
REMARK  220  A    between atoms: _525  and  _526
REMARK  221  A    between atoms: _525  and  _528
REMARK  222  A    between atoms: _528  and  _529
REMARK  223  A    between atoms: _529  and  _530
REMARK  224  A    between atoms: _530  and  _531
REMARK  225  A    between atoms: _540  and  _542
REMARK  226  A    between atoms: _542  and  _543
REMARK  227  A    between atoms: _542  and  _545
REMARK  228  A    between atoms: _545  and  _546
REMARK  229  A    between atoms: _549  and  _551
REMARK  230  A    between atoms: _551  and  _552
REMARK  231  A    between atoms: _551  and  _554
REMARK  232  A    between atoms: _554  and  _555
REMARK  233  A    between atoms: _560  and  _562
REMARK  234  A    between atoms: _562  and  _563
REMARK  235  A    between atoms: _562  and  _565
REMARK  236  A    between atoms: _565  and  _566
REMARK  237  A    between atoms: _566  and  _567
REMARK  238  A    between atoms: _567  and  _568
REMARK  239  A    between atoms: _577  and  _579
REMARK  240  A    between atoms: _579  and  _580
REMARK  241  A    between atoms: _579  and  _582
REMARK  242  A    between atoms: _582  and  _583
REMARK  243  A    between atoms: _586  and  _588
REMARK  244  A    between atoms: _588  and  _589
REMARK  245  A    between atoms: _588  and  _591
REMARK  246  A    between atoms: _591  and  _592
REMARK  247  A    between atoms: _595  and  _597
REMARK  248  A    between atoms: _597  and  _598
REMARK  249  A    between atoms: _597  and  _600
REMARK  250  A    between atoms: _600  and  _601
REMARK                            x       y       z     vdW  Elec       q    Type
REMARK                         _______ _______ _______ _____ _____    ______ ____
ROOT
ATOM      1  O   HOH     1    -120.792  35.297 128.574  0.00  0.00    +0.000 OA
ENDROOT
TORSDOF 0
REMARK  Name = ../refined-set-2016/2pqb/2pqb_pocket.pdb
REMARK  250 active torsions:
REMARK  status: ('A' for Active; 'I' for Inactive)
REMARK    1  A    between atoms: _1  and  _3
REMARK    2  A    between atoms: _3  and  _4
REMARK    3  A    between atoms: _3  and  _6
REMARK    4  A    between atoms: _6  and  _7
REMARK    5  A    between atoms: _10  and  _12
REMARK    6  A    between atoms: _12  and  _13
REMARK    7  A    between atoms: _12  and  _15
REMARK    8  A    between atoms: _15  and  _16
REMARK    9  A    between atoms: _16  and  _17
REMARK   10  A    between atoms: _17  and  _18
REMARK   11  A    between atoms: _18  and  _19
REMARK   12  A    between atoms: _23  and  _25
REMARK   13  A    between atoms: _25  and  _26
REMARK   14  A    between atoms: _25  and  _28
REMARK   15  A    between atoms: _28  and  _29
REMARK   16  A    between atoms: _31  and  _33
REMARK   17  A    between atoms: _33  and  _34
REMARK   18  A    between atoms: _33  and  _36
REMARK   19  A    between atoms: _36  and  _37
REMARK   20  A    between atoms: _40  and  _42
REMARK   21  A    between atoms: _42  and  _43
REMARK   22  A    between atoms: _42  and  _45
REMARK   23  A    between atoms: _45  and  _46
REMARK   24  A    between atoms: _48  and  _50
REMARK   25  A    between atoms: _50  and  _51
REMARK   26  A    between atoms: _50  and  _53
REMARK   27  A    between atoms: _53  and  _54
REMARK   28  A    between atoms: _59  and  _61
REMARK   29  A    between atoms: _61  and  _62
REMARK   30  A    between atoms: _61  and  _64
REMARK   31  A    between atoms: _64  and  _65
REMARK   32  A    between atoms: _65  and  _66
REMARK   33  A    between atoms: _66  and  _67
REMARK   34  A    between atoms: _76  and  _78
REMARK   35  A    between atoms: _78  and  _79
REMARK   36  A    between atoms: _78  and  _81
REMARK   37  A    between atoms: _81  and  _82
REMARK   38  A    between atoms: _85  and  _87
REMARK   39  A    between atoms: _87  and  _88
REMARK   40  A    between atoms: _87  and  _90
REMARK   41  A    between atoms: _90  and  _91
REMARK   42  A    between atoms: _94  and  _96
REMARK   43  A    between atoms: _96  and  _97
REMARK   44  A    between atoms: _96  and  _99
REMARK   45  A    between atoms: _99  and  _100
REMARK   46  A    between atoms: _106  and  _108
REMARK   47  A    between atoms: _108  and  _109
REMARK   48  A    between atoms: _108  and  _111
REMARK   49  A    between atoms: _111  and  _112
REMARK   50  A    between atoms: _117  and  _119
REMARK   51  A    between atoms: _119  and  _120
REMARK   52  A    between atoms: _123  and  _125
REMARK   53  A    between atoms: _125  and  _126
REMARK   54  A    between atoms: _129  and  _131
REMARK   55  A    between atoms: _131  and  _132
REMARK   56  A    between atoms: _131  and  _134
REMARK   57  A    between atoms: _134  and  _135
REMARK   58  A    between atoms: _138  and  _140
REMARK   59  A    between atoms: _140  and  _141
REMARK   60  A    between atoms: _143  and  _145
REMARK   61  A    between atoms: _145  and  _146
REMARK   62  A    between atoms: _145  and  _148
REMARK   63  A    between atoms: _150  and  _152
REMARK   64  A    between atoms: _152  and  _153
REMARK   65  A    between atoms: _152  and  _155
REMARK   66  A    between atoms: _155  and  _156
REMARK   67  A    between atoms: _156  and  _157
REMARK   68  A    between atoms: _157  and  _158
REMARK   69  A    between atoms: _167  and  _169
REMARK   70  A    between atoms: _169  and  _170
REMARK   71  A    between atoms: _169  and  _172
REMARK   72  A    between atoms: _172  and  _173
REMARK   73  A    between atoms: _176  and  _178
REMARK   74  A    between atoms: _178  and  _179
REMARK   75  A    between atoms: _178  and  _181
REMARK   76  A    between atoms: _181  and  _182
REMARK   77  A    between atoms: _184  and  _186
REMARK   78  A    between atoms: _186  and  _187
REMARK   79  A    between atoms: _186  and  _189
REMARK   80  A    between atoms: _189  and  _190
REMARK   81  A    between atoms: _193  and  _195
REMARK   82  A    between atoms: _195  and  _196
REMARK   83  A    between atoms: _195  and  _198
REMARK   84  A    between atoms: _198  and  _199
REMARK   85  A    between atoms: _199  and  _200
REMARK   86  A    between atoms: _200  and  _201
REMARK   87  A    between atoms: _211  and  _212
REMARK   88  A    between atoms: _217  and  _219
REMARK   89  A    between atoms: _219  and  _220
REMARK   90  A    between atoms: _219  and  _222
REMARK   91  A    between atoms: _222  and  _223
REMARK   92  A    between atoms: _223  and  _224
REMARK   93  A    between atoms: _224  and  _225
REMARK   94  A    between atoms: _234  and  _236
REMARK   95  A    between atoms: _236  and  _237
REMARK   96  A    between atoms: _236  and  _239
REMARK   97  A    between atoms: _242  and  _244
REMARK   98  A    between atoms: _244  and  _245
REMARK   99  A    between atoms: _244  and  _247
REMARK  100  A    between atoms: _250  and  _252
REMARK  101  A    between atoms: _252  and  _253
REMARK  102  A    between atoms: _252  and  _255
REMARK  103  A    between atoms: _255  and  _256
REMARK  104  A    between atoms: _256  and  _257
REMARK  105  A    between atoms: _259  and  _261
REMARK  106  A    between atoms: _261  and  _262
REMARK  107  A    between atoms: _265  and  _267
REMARK  108  A    between atoms: _267  and  _268
REMARK  109  A    between atoms: _267  and  _270
REMARK  110  A    between atoms: _270  and  _271
REMARK  111  A    between atoms: _273  and  _275
REMARK  112  A    between atoms: _275  and  _276
REMARK  113  A    between atoms: _279  and  _281
REMARK  114  A    between atoms: _281  and  _282
REMARK  115  A    between atoms: _281  and  _284
REMARK  116  A    between atoms: _284  and  _285
REMARK  117  A    between atoms: _285  and  _286
REMARK  118  A    between atoms: _291  and  _293
REMARK  119  A    between atoms: _293  and  _294
REMARK  120  A    between atoms: _293  and  _296
REMARK  121  A    between atoms: _299  and  _301
REMARK  122  A    between atoms: _301  and  _302
REMARK  123  A    between atoms: _301  and  _304
REMARK  124  A    between atoms: _304  and  _305
REMARK  125  A    between atoms: _305  and  _306
REMARK  126  A    between atoms: _306  and  _307
REMARK  127  A    between atoms: _307  and  _308
REMARK  128  A    between atoms: _312  and  _314
REMARK  129  A    between atoms: _314  and  _315
REMARK  130  A    between atoms: _314  and  _317
REMARK  131  A    between atoms: _317  and  _318
REMARK  132  A    between atoms: _320  and  _322
REMARK  133  A    between atoms: _322  and  _323
REMARK  134  A    between atoms: _326  and  _328
REMARK  135  A    between atoms: _328  and  _329
REMARK  136  A    between atoms: _328  and  _331
REMARK  137  A    between atoms: _331  and  _332
REMARK  138  A    between atoms: _335  and  _337
REMARK  139  A    between atoms: _337  and  _338
REMARK  140  A    between atoms: _337  and  _340
REMARK  141  A    between atoms: _340  and  _341
REMARK  142  A    between atoms: _341  and  _342
REMARK  143  A    between atoms: _342  and  _343
REMARK  144  A    between atoms: _352  and  _354
REMARK  145  A    between atoms: _354  and  _355
REMARK  146  A    between atoms: _354  and  _357
REMARK  147  A    between atoms: _357  and  _358
REMARK  148  A    between atoms: _361  and  _363
REMARK  149  A    between atoms: _363  and  _364
REMARK  150  A    between atoms: _363  and  _366
REMARK  151  A    between atoms: _366  and  _367
REMARK  152  A    between atoms: _372  and  _374
REMARK  153  A    between atoms: _374  and  _375
REMARK  154  A    between atoms: _374  and  _377
REMARK  155  A    between atoms: _377  and  _378
REMARK  156  A    between atoms: _381  and  _383
REMARK  157  A    between atoms: _383  and  _384
REMARK  158  A    between atoms: _383  and  _386
REMARK  159  A    between atoms: _386  and  _387
REMARK  160  A    between atoms: _390  and  _392
REMARK  161  A    between atoms: _392  and  _393
REMARK  162  A    between atoms: _392  and  _395
REMARK  163  A    between atoms: _395  and  _396
REMARK  164  A    between atoms: _398  and  _400
REMARK  165  A    between atoms: _400  and  _401
REMARK  166  A    between atoms: _400  and  _403
REMARK  167  A    between atoms: _403  and  _404
REMARK  168  A    between atoms: _404  and  _405
REMARK  169  A    between atoms: _405  and  _406
REMARK  170  A    between atoms: _415  and  _417
REMARK  171  A    between atoms: _417  and  _418
REMARK  172  A    between atoms: _422  and  _423
REMARK  173  A    between atoms: _428  and  _430
REMARK  174  A    between atoms: _430  and  _431
REMARK  175  A    between atoms: _430  and  _433
REMARK  176  A    between atoms: _433  and  _434
REMARK  177  A    between atoms: _434  and  _435
REMARK  178  A    between atoms: _437  and  _439
REMARK  179  A    between atoms: _439  and  _440
REMARK  180  A    between atoms: _439  and  _442
REMARK  181  A    between atoms: _442  and  _443
REMARK  182  A    between atoms: _446  and  _448
REMARK  183  A    between atoms: _448  and  _449
REMARK  184  A    between atoms: _448  and  _451
REMARK  185  A    between atoms: _451  and  _452
REMARK  186  A    between atoms: _455  and  _457
REMARK  187  A    between atoms: _457  and  _458
REMARK  188  A    between atoms: _457  and  _460
REMARK  189  A    between atoms: _460  and  _461
REMARK  190  A    between atoms: _461  and  _462
REMARK  191  A    between atoms: _465  and  _467
REMARK  192  A    between atoms: _467  and  _468
REMARK  193  A    between atoms: _467  and  _470
REMARK  194  A    between atoms: _470  and  _471
REMARK  195  A    between atoms: _471  and  _472
REMARK  196  A    between atoms: _475  and  _477
REMARK  197  A    between atoms: _477  and  _478
REMARK  198  A    between atoms: _477  and  _480
REMARK  199  A    between atoms: _480  and  _481
REMARK  200  A    between atoms: _484  and  _486
REMARK  201  A    between atoms: _486  and  _487
REMARK  202  A    between atoms: _486  and  _489
REMARK  203  A    between atoms: _492  and  _494
REMARK  204  A    between atoms: _494  and  _495
REMARK  205  A    between atoms: _494  and  _497
REMARK  206  A    between atoms: _497  and  _498
REMARK  207  A    between atoms: _498  and  _499
REMARK  208  A    between atoms: _499  and  _500
REMARK  209  A    between atoms: _500  and  _501
REMARK  210  A    between atoms: _505  and  _507
REMARK  211  A    between atoms: _507  and  _508
REMARK  212  A    between atoms: _507  and  _510
REMARK  213  A    between atoms: _510  and  _511
REMARK  214  A    between atoms: _511  and  _512
REMARK  215  A    between atoms: _515  and  _517
REMARK  216  A    between atoms: _517  and  _518
REMARK  217  A    between atoms: _517  and  _520
REMARK  218  A    between atoms: _520  and  _521
REMARK  219  A    between atoms: _523  and  _525
REMARK  220  A    between atoms: _525  and  _526
REMARK  221  A    between atoms: _525  and  _528
REMARK  222  A    between atoms: _528  and  _529
REMARK  223  A    between atoms: _529  and  _530
REMARK  224  A    between atoms: _530  and  _531
REMARK  225  A    between atoms: _540  and  _542
REMARK  226  A    between atoms: _542  and  _543
REMARK  227  A    between atoms: _542  and  _545
REMARK  228  A    between atoms: _545  and  _546
REMARK  229  A    between atoms: _549  and  _551
REMARK  230  A    between atoms: _551  and  _552
REMARK  231  A    between atoms: _551  and  _554
REMARK  232  A    between atoms: _554  and  _555
REMARK  233  A    between atoms: _560  and  _562
REMARK  234  A    between atoms: _562  and  _563
REMARK  235  A    between atoms: _562  and  _565
REMARK  236  A    between atoms: _565  and  _566
REMARK  237  A    between atoms: _566  and  _567
REMARK  238  A    between atoms: _567  and  _568
REMARK  239  A    between atoms: _577  and  _579
REMARK  240  A    between atoms: _579  and  _580
REMARK  241  A    between atoms: _579  and  _582
REMARK  242  A    between atoms: _582  and  _583
REMARK  243  A    between atoms: _586  and  _588
REMARK  244  A    between atoms: _588  and  _589
REMARK  245  A    between atoms: _588  and  _591
REMARK  246  A    between atoms: _591  and  _592
REMARK  247  A    between atoms: _595  and  _597
REMARK  248  A    between atoms: _597  and  _598
REMARK  249  A    between atoms: _597  and  _600
REMARK  250  A    between atoms: _600  and  _601
REMARK                            x       y       z     vdW  Elec       q    Type
REMARK                         _______ _______ _______ _____ _____    ______ ____
ROOT
ATOM      1  O   HOH     1    -132.719  37.600 125.488  0.00  0.00    +0.000 OA
ENDROOT
TORSDOF 0
REMARK  Name = ../refined-set-2016/2pqb/2pqb_pocket.pdb
REMARK  250 active torsions:
REMARK  status: ('A' for Active; 'I' for Inactive)
REMARK    1  A    between atoms: _1  and  _3
REMARK    2  A    between atoms: _3  and  _4
REMARK    3  A    between atoms: _3  and  _6
REMARK    4  A    between atoms: _6  and  _7
REMARK    5  A    between atoms: _10  and  _12
REMARK    6  A    between atoms: _12  and  _13
REMARK    7  A    between atoms: _12  and  _15
REMARK    8  A    between atoms: _15  and  _16
REMARK    9  A    between atoms: _16  and  _17
REMARK   10  A    between atoms: _17  and  _18
REMARK   11  A    between atoms: _18  and  _19
REMARK   12  A    between atoms: _23  and  _25
REMARK   13  A    between atoms: _25  and  _26
REMARK   14  A    between atoms: _25  and  _28
REMARK   15  A    between atoms: _28  and  _29
REMARK   16  A    between atoms: _31  and  _33
REMARK   17  A    between atoms: _33  and  _34
REMARK   18  A    between atoms: _33  and  _36
REMARK   19  A    between atoms: _36  and  _37
REMARK   20  A    between atoms: _40  and  _42
REMARK   21  A    between atoms: _42  and  _43
REMARK   22  A    between atoms: _42  and  _45
REMARK   23  A    between atoms: _45  and  _46
REMARK   24  A    between atoms: _48  and  _50
REMARK   25  A    between atoms: _50  and  _51
REMARK   26  A    between atoms: _50  and  _53
REMARK   27  A    between atoms: _53  and  _54
REMARK   28  A    between atoms: _59  and  _61
REMARK   29  A    between atoms: _61  and  _62
REMARK   30  A    between atoms: _61  and  _64
REMARK   31  A    between atoms: _64  and  _65
REMARK   32  A    between atoms: _65  and  _66
REMARK   33  A    between atoms: _66  and  _67
REMARK   34  A    between atoms: _76  and  _78
REMARK   35  A    between atoms: _78  and  _79
REMARK   36  A    between atoms: _78  and  _81
REMARK   37  A    between atoms: _81  and  _82
REMARK   38  A    between atoms: _85  and  _87
REMARK   39  A    between atoms: _87  and  _88
REMARK   40  A    between atoms: _87  and  _90
REMARK   41  A    between atoms: _90  and  _91
REMARK   42  A    between atoms: _94  and  _96
REMARK   43  A    between atoms: _96  and  _97
REMARK   44  A    between atoms: _96  and  _99
REMARK   45  A    between atoms: _99  and  _100
REMARK   46  A    between atoms: _106  and  _108
REMARK   47  A    between atoms: _108  and  _109
REMARK   48  A    between atoms: _108  and  _111
REMARK   49  A    between atoms: _111  and  _112
REMARK   50  A    between atoms: _117  and  _119
REMARK   51  A    between atoms: _119  and  _120
REMARK   52  A    between atoms: _123  and  _125
REMARK   53  A    between atoms: _125  and  _126
REMARK   54  A    between atoms: _129  and  _131
REMARK   55  A    between atoms: _131  and  _132
REMARK   56  A    between atoms: _131  and  _134
REMARK   57  A    between atoms: _134  and  _135
REMARK   58  A    between atoms: _138  and  _140
REMARK   59  A    between atoms: _140  and  _141
REMARK   60  A    between atoms: _143  and  _145
REMARK   61  A    between atoms: _145  and  _146
REMARK   62  A    between atoms: _145  and  _148
REMARK   63  A    between atoms: _150  and  _152
REMARK   64  A    between atoms: _152  and  _153
REMARK   65  A    between atoms: _152  and  _155
REMARK   66  A    between atoms: _155  and  _156
REMARK   67  A    between atoms: _156  and  _157
REMARK   68  A    between atoms: _157  and  _158
REMARK   69  A    between atoms: _167  and  _169
REMARK   70  A    between atoms: _169  and  _170
REMARK   71  A    between atoms: _169  and  _172
REMARK   72  A    between atoms: _172  and  _173
REMARK   73  A    between atoms: _176  and  _178
REMARK   74  A    between atoms: _178  and  _179
REMARK   75  A    between atoms: _178  and  _181
REMARK   76  A    between atoms: _181  and  _182
REMARK   77  A    between atoms: _184  and  _186
REMARK   78  A    between atoms: _186  and  _187
REMARK   79  A    between atoms: _186  and  _189
REMARK   80  A    between atoms: _189  and  _190
REMARK   81  A    between atoms: _193  and  _195
REMARK   82  A    between atoms: _195  and  _196
REMARK   83  A    between atoms: _195  and  _198
REMARK   84  A    between atoms: _198  and  _199
REMARK   85  A    between atoms: _199  and  _200
REMARK   86  A    between atoms: _200  and  _201
REMARK   87  A    between atoms: _211  and  _212
REMARK   88  A    between atoms: _217  and  _219
REMARK   89  A    between atoms: _219  and  _220
REMARK   90  A    between atoms: _219  and  _222
REMARK   91  A    between atoms: _222  and  _223
REMARK   92  A    between atoms: _223  and  _224
REMARK   93  A    between atoms: _224  and  _225
REMARK   94  A    between atoms: _234  and  _236
REMARK   95  A    between atoms: _236  and  _237
REMARK   96  A    between atoms: _236  and  _239
REMARK   97  A    between atoms: _242  and  _244
REMARK   98  A    between atoms: _244  and  _245
REMARK   99  A    between atoms: _244  and  _247
REMARK  100  A    between atoms: _250  and  _252
REMARK  101  A    between atoms: _252  and  _253
REMARK  102  A    between atoms: _252  and  _255
REMARK  103  A    between atoms: _255  and  _256
REMARK  104  A    between atoms: _256  and  _257
REMARK  105  A    between atoms: _259  and  _261
REMARK  106  A    between atoms: _261  and  _262
REMARK  107  A    between atoms: _265  and  _267
REMARK  108  A    between atoms: _267  and  _268
REMARK  109  A    between atoms: _267  and  _270
REMARK  110  A    between atoms: _270  and  _271
REMARK  111  A    between atoms: _273  and  _275
REMARK  112  A    between atoms: _275  and  _276
REMARK  113  A    between atoms: _279  and  _281
REMARK  114  A    between atoms: _281  and  _282
REMARK  115  A    between atoms: _281  and  _284
REMARK  116  A    between atoms: _284  and  _285
REMARK  117  A    between atoms: _285  and  _286
REMARK  118  A    between atoms: _291  and  _293
REMARK  119  A    between atoms: _293  and  _294
REMARK  120  A    between atoms: _293  and  _296
REMARK  121  A    between atoms: _299  and  _301
REMARK  122  A    between atoms: _301  and  _302
REMARK  123  A    between atoms: _301  and  _304
REMARK  124  A    between atoms: _304  and  _305
REMARK  125  A    between atoms: _305  and  _306
REMARK  126  A    between atoms: _306  and  _307
REMARK  127  A    between atoms: _307  and  _308
REMARK  128  A    between atoms: _312  and  _314
REMARK  129  A    between atoms: _314  and  _315
REMARK  130  A    between atoms: _314  and  _317
REMARK  131  A    between atoms: _317  and  _318
REMARK  132  A    between atoms: _320  and  _322
REMARK  133  A    between atoms: _322  and  _323
REMARK  134  A    between atoms: _326  and  _328
REMARK  135  A    between atoms: _328  and  _329
REMARK  136  A    between atoms: _328  and  _331
REMARK  137  A    between atoms: _331  and  _332
REMARK  138  A    between atoms: _335  and  _337
REMARK  139  A    between atoms: _337  and  _338
REMARK  140  A    between atoms: _337  and  _340
REMARK  141  A    between atoms: _340  and  _341
REMARK  142  A    between atoms: _341  and  _342
REMARK  143  A    between atoms: _342  and  _343
REMARK  144  A    between atoms: _352  and  _354
REMARK  145  A    between atoms: _354  and  _355
REMARK  146  A    between atoms: _354  and  _357
REMARK  147  A    between atoms: _357  and  _358
REMARK  148  A    between atoms: _361  and  _363
REMARK  149  A    between atoms: _363  and  _364
REMARK  150  A    between atoms: _363  and  _366
REMARK  151  A    between atoms: _366  and  _367
REMARK  152  A    between atoms: _372  and  _374
REMARK  153  A    between atoms: _374  and  _375
REMARK  154  A    between atoms: _374  and  _377
REMARK  155  A    between atoms: _377  and  _378
REMARK  156  A    between atoms: _381  and  _383
REMARK  157  A    between atoms: _383  and  _384
REMARK  158  A    between atoms: _383  and  _386
REMARK  159  A    between atoms: _386  and  _387
REMARK  160  A    between atoms: _390  and  _392
REMARK  161  A    between atoms: _392  and  _393
REMARK  162  A    between atoms: _392  and  _395
REMARK  163  A    between atoms: _395  and  _396
REMARK  164  A    between atoms: _398  and  _400
REMARK  165  A    between atoms: _400  and  _401
REMARK  166  A    between atoms: _400  and  _403
REMARK  167  A    between atoms: _403  and  _404
REMARK  168  A    between atoms: _404  and  _405
REMARK  169  A    between atoms: _405  and  _406
REMARK  170  A    between atoms: _415  and  _417
REMARK  171  A    between atoms: _417  and  _418
REMARK  172  A    between atoms: _422  and  _423
REMARK  173  A    between atoms: _428  and  _430
REMARK  174  A    between atoms: _430  and  _431
REMARK  175  A    between atoms: _430  and  _433
REMARK  176  A    between atoms: _433  and  _434
REMARK  177  A    between atoms: _434  and  _435
REMARK  178  A    between atoms: _437  and  _439
REMARK  179  A    between atoms: _439  and  _440
REMARK  180  A    between atoms: _439  and  _442
REMARK  181  A    between atoms: _442  and  _443
REMARK  182  A    between atoms: _446  and  _448
REMARK  183  A    between atoms: _448  and  _449
REMARK  184  A    between atoms: _448  and  _451
REMARK  185  A    between atoms: _451  and  _452
REMARK  186  A    between atoms: _455  and  _457
REMARK  187  A    between atoms: _457  and  _458
REMARK  188  A    between atoms: _457  and  _460
REMARK  189  A    between atoms: _460  and  _461
REMARK  190  A    between atoms: _461  and  _462
REMARK  191  A    between atoms: _465  and  _467
REMARK  192  A    between atoms: _467  and  _468
REMARK  193  A    between atoms: _467  and  _470
REMARK  194  A    between atoms: _470  and  _471
REMARK  195  A    between atoms: _471  and  _472
REMARK  196  A    between atoms: _475  and  _477
REMARK  197  A    between atoms: _477  and  _478
REMARK  198  A    between atoms: _477  and  _480
REMARK  199  A    between atoms: _480  and  _481
REMARK  200  A    between atoms: _484  and  _486
REMARK  201  A    between atoms: _486  and  _487
REMARK  202  A    between atoms: _486  and  _489
REMARK  203  A    between atoms: _492  and  _494
REMARK  204  A    between atoms: _494  and  _495
REMARK  205  A    between atoms: _494  and  _497
REMARK  206  A    between atoms: _497  and  _498
REMARK  207  A    between atoms: _498  and  _499
REMARK  208  A    between atoms: _499  and  _500
REMARK  209  A    between atoms: _500  and  _501
REMARK  210  A    between atoms: _505  and  _507
REMARK  211  A    between atoms: _507  and  _508
REMARK  212  A    between atoms: _507  and  _510
REMARK  213  A    between atoms: _510  and  _511
REMARK  214  A    between atoms: _511  and  _512
REMARK  215  A    between atoms: _515  and  _517
REMARK  216  A    between atoms: _517  and  _518
REMARK  217  A    between atoms: _517  and  _520
REMARK  218  A    between atoms: _520  and  _521
REMARK  219  A    between atoms: _523  and  _525
REMARK  220  A    between atoms: _525  and  _526
REMARK  221  A    between atoms: _525  and  _528
REMARK  222  A    between atoms: _528  and  _529
REMARK  223  A    between atoms: _529  and  _530
REMARK  224  A    between atoms: _530  and  _531
REMARK  225  A    between atoms: _540  and  _542
REMARK  226  A    between atoms: _542  and  _543
REMARK  227  A    between atoms: _542  and  _545
REMARK  228  A    between atoms: _545  and  _546
REMARK  229  A    between atoms: _549  and  _551
REMARK  230  A    between atoms: _551  and  _552
REMARK  231  A    between atoms: _551  and  _554
REMARK  232  A    between atoms: _554  and  _555
REMARK  233  A    between atoms: _560  and  _562
REMARK  234  A    between atoms: _562  and  _563
REMARK  235  A    between atoms: _562  and  _565
REMARK  236  A    between atoms: _565  and  _566
REMARK  237  A    between atoms: _566  and  _567
REMARK  238  A    between atoms: _567  and  _568
REMARK  239  A    between atoms: _577  and  _579
REMARK  240  A    between atoms: _579  and  _580
REMARK  241  A    between atoms: _579  and  _582
REMARK  242  A    between atoms: _582  and  _583
REMARK  243  A    between atoms: _586  and  _588
REMARK  244  A    between atoms: _588  and  _589
REMARK  245  A    between atoms: _588  and  _591
REMARK  246  A    between atoms: _591  and  _592
REMARK  247  A    between atoms: _595  and  _597
REMARK  248  A    between atoms: _597  and  _598
REMARK  249  A    between atoms: _597  and  _600
REMARK  250  A    between atoms: _600  and  _601
REMARK                            x       y       z     vdW  Elec       q    Type
REMARK                         _______ _______ _______ _____ _____    ______ ____
ROOT
ATOM      1  O   HOH     1    -134.709  32.608 122.463  0.00  0.00    +0.000 OA
ENDROOT
TORSDOF 0
REMARK  Name = ../refined-set-2016/2pqb/2pqb_pocket.pdb
REMARK  250 active torsions:
REMARK  status: ('A' for Active; 'I' for Inactive)
REMARK    1  A    between atoms: _1  and  _3
REMARK    2  A    between atoms: _3  and  _4
REMARK    3  A    between atoms: _3  and  _6
REMARK    4  A    between atoms: _6  and  _7
REMARK    5  A    between atoms: _10  and  _12
REMARK    6  A    between atoms: _12  and  _13
REMARK    7  A    between atoms: _12  and  _15
REMARK    8  A    between atoms: _15  and  _16
REMARK    9  A    between atoms: _16  and  _17
REMARK   10  A    between atoms: _17  and  _18
REMARK   11  A    between atoms: _18  and  _19
REMARK   12  A    between atoms: _23  and  _25
REMARK   13  A    between atoms: _25  and  _26
REMARK   14  A    between atoms: _25  and  _28
REMARK   15  A    between atoms: _28  and  _29
REMARK   16  A    between atoms: _31  and  _33
REMARK   17  A    between atoms: _33  and  _34
REMARK   18  A    between atoms: _33  and  _36
REMARK   19  A    between atoms: _36  and  _37
REMARK   20  A    between atoms: _40  and  _42
REMARK   21  A    between atoms: _42  and  _43
REMARK   22  A    between atoms: _42  and  _45
REMARK   23  A    between atoms: _45  and  _46
REMARK   24  A    between atoms: _48  and  _50
REMARK   25  A    between atoms: _50  and  _51
REMARK   26  A    between atoms: _50  and  _53
REMARK   27  A    between atoms: _53  and  _54
REMARK   28  A    between atoms: _59  and  _61
REMARK   29  A    between atoms: _61  and  _62
REMARK   30  A    between atoms: _61  and  _64
REMARK   31  A    between atoms: _64  and  _65
REMARK   32  A    between atoms: _65  and  _66
REMARK   33  A    between atoms: _66  and  _67
REMARK   34  A    between atoms: _76  and  _78
REMARK   35  A    between atoms: _78  and  _79
REMARK   36  A    between atoms: _78  and  _81
REMARK   37  A    between atoms: _81  and  _82
REMARK   38  A    between atoms: _85  and  _87
REMARK   39  A    between atoms: _87  and  _88
REMARK   40  A    between atoms: _87  and  _90
REMARK   41  A    between atoms: _90  and  _91
REMARK   42  A    between atoms: _94  and  _96
REMARK   43  A    between atoms: _96  and  _97
REMARK   44  A    between atoms: _96  and  _99
REMARK   45  A    between atoms: _99  and  _100
REMARK   46  A    between atoms: _106  and  _108
REMARK   47  A    between atoms: _108  and  _109
REMARK   48  A    between atoms: _108  and  _111
REMARK   49  A    between atoms: _111  and  _112
REMARK   50  A    between atoms: _117  and  _119
REMARK   51  A    between atoms: _119  and  _120
REMARK   52  A    between atoms: _123  and  _125
REMARK   53  A    between atoms: _125  and  _126
REMARK   54  A    between atoms: _129  and  _131
REMARK   55  A    between atoms: _131  and  _132
REMARK   56  A    between atoms: _131  and  _134
REMARK   57  A    between atoms: _134  and  _135
REMARK   58  A    between atoms: _138  and  _140
REMARK   59  A    between atoms: _140  and  _141
REMARK   60  A    between atoms: _143  and  _145
REMARK   61  A    between atoms: _145  and  _146
REMARK   62  A    between atoms: _145  and  _148
REMARK   63  A    between atoms: _150  and  _152
REMARK   64  A    between atoms: _152  and  _153
REMARK   65  A    between atoms: _152  and  _155
REMARK   66  A    between atoms: _155  and  _156
REMARK   67  A    between atoms: _156  and  _157
REMARK   68  A    between atoms: _157  and  _158
REMARK   69  A    between atoms: _167  and  _169
REMARK   70  A    between atoms: _169  and  _170
REMARK   71  A    between atoms: _169  and  _172
REMARK   72  A    between atoms: _172  and  _173
REMARK   73  A    between atoms: _176  and  _178
REMARK   74  A    between atoms: _178  and  _179
REMARK   75  A    between atoms: _178  and  _181
REMARK   76  A    between atoms: _181  and  _182
REMARK   77  A    between atoms: _184  and  _186
REMARK   78  A    between atoms: _186  and  _187
REMARK   79  A    between atoms: _186  and  _189
REMARK   80  A    between atoms: _189  and  _190
REMARK   81  A    between atoms: _193  and  _195
REMARK   82  A    between atoms: _195  and  _196
REMARK   83  A    between atoms: _195  and  _198
REMARK   84  A    between atoms: _198  and  _199
REMARK   85  A    between atoms: _199  and  _200
REMARK   86  A    between atoms: _200  and  _201
REMARK   87  A    between atoms: _211  and  _212
REMARK   88  A    between atoms: _217  and  _219
REMARK   89  A    between atoms: _219  and  _220
REMARK   90  A    between atoms: _219  and  _222
REMARK   91  A    between atoms: _222  and  _223
REMARK   92  A    between atoms: _223  and  _224
REMARK   93  A    between atoms: _224  and  _225
REMARK   94  A    between atoms: _234  and  _236
REMARK   95  A    between atoms: _236  and  _237
REMARK   96  A    between atoms: _236  and  _239
REMARK   97  A    between atoms: _242  and  _244
REMARK   98  A    between atoms: _244  and  _245
REMARK   99  A    between atoms: _244  and  _247
REMARK  100  A    between atoms: _250  and  _252
REMARK  101  A    between atoms: _252  and  _253
REMARK  102  A    between atoms: _252  and  _255
REMARK  103  A    between atoms: _255  and  _256
REMARK  104  A    between atoms: _256  and  _257
REMARK  105  A    between atoms: _259  and  _261
REMARK  106  A    between atoms: _261  and  _262
REMARK  107  A    between atoms: _265  and  _267
REMARK  108  A    between atoms: _267  and  _268
REMARK  109  A    between atoms: _267  and  _270
REMARK  110  A    between atoms: _270  and  _271
REMARK  111  A    between atoms: _273  and  _275
REMARK  112  A    between atoms: _275  and  _276
REMARK  113  A    between atoms: _279  and  _281
REMARK  114  A    between atoms: _281  and  _282
REMARK  115  A    between atoms: _281  and  _284
REMARK  116  A    between atoms: _284  and  _285
REMARK  117  A    between atoms: _285  and  _286
REMARK  118  A    between atoms: _291  and  _293
REMARK  119  A    between atoms: _293  and  _294
REMARK  120  A    between atoms: _293  and  _296
REMARK  121  A    between atoms: _299  and  _301
REMARK  122  A    between atoms: _301  and  _302
REMARK  123  A    between atoms: _301  and  _304
REMARK  124  A    between atoms: _304  and  _305
REMARK  125  A    between atoms: _305  and  _306
REMARK  126  A    between atoms: _306  and  _307
REMARK  127  A    between atoms: _307  and  _308
REMARK  128  A    between atoms: _312  and  _314
REMARK  129  A    between atoms: _314  and  _315
REMARK  130  A    between atoms: _314  and  _317
REMARK  131  A    between atoms: _317  and  _318
REMARK  132  A    between atoms: _320  and  _322
REMARK  133  A    between atoms: _322  and  _323
REMARK  134  A    between atoms: _326  and  _328
REMARK  135  A    between atoms: _328  and  _329
REMARK  136  A    between atoms: _328  and  _331
REMARK  137  A    between atoms: _331  and  _332
REMARK  138  A    between atoms: _335  and  _337
REMARK  139  A    between atoms: _337  and  _338
REMARK  140  A    between atoms: _337  and  _340
REMARK  141  A    between atoms: _340  and  _341
REMARK  142  A    between atoms: _341  and  _342
REMARK  143  A    between atoms: _342  and  _343
REMARK  144  A    between atoms: _352  and  _354
REMARK  145  A    between atoms: _354  and  _355
REMARK  146  A    between atoms: _354  and  _357
REMARK  147  A    between atoms: _357  and  _358
REMARK  148  A    between atoms: _361  and  _363
REMARK  149  A    between atoms: _363  and  _364
REMARK  150  A    between atoms: _363  and  _366
REMARK  151  A    between atoms: _366  and  _367
REMARK  152  A    between atoms: _372  and  _374
REMARK  153  A    between atoms: _374  and  _375
REMARK  154  A    between atoms: _374  and  _377
REMARK  155  A    between atoms: _377  and  _378
REMARK  156  A    between atoms: _381  and  _383
REMARK  157  A    between atoms: _383  and  _384
REMARK  158  A    between atoms: _383  and  _386
REMARK  159  A    between atoms: _386  and  _387
REMARK  160  A    between atoms: _390  and  _392
REMARK  161  A    between atoms: _392  and  _393
REMARK  162  A    between atoms: _392  and  _395
REMARK  163  A    between atoms: _395  and  _396
REMARK  164  A    between atoms: _398  and  _400
REMARK  165  A    between atoms: _400  and  _401
REMARK  166  A    between atoms: _400  and  _403
REMARK  167  A    between atoms: _403  and  _404
REMARK  168  A    between atoms: _404  and  _405
REMARK  169  A    between atoms: _405  and  _406
REMARK  170  A    between atoms: _415  and  _417
REMARK  171  A    between atoms: _417  and  _418
REMARK  172  A    between atoms: _422  and  _423
REMARK  173  A    between atoms: _428  and  _430
REMARK  174  A    between atoms: _430  and  _431
REMARK  175  A    between atoms: _430  and  _433
REMARK  176  A    between atoms: _433  and  _434
REMARK  177  A    between atoms: _434  and  _435
REMARK  178  A    between atoms: _437  and  _439
REMARK  179  A    between atoms: _439  and  _440
REMARK  180  A    between atoms: _439  and  _442
REMARK  181  A    between atoms: _442  and  _443
REMARK  182  A    between atoms: _446  and  _448
REMARK  183  A    between atoms: _448  and  _449
REMARK  184  A    between atoms: _448  and  _451
REMARK  185  A    between atoms: _451  and  _452
REMARK  186  A    between atoms: _455  and  _457
REMARK  187  A    between atoms: _457  and  _458
REMARK  188  A    between atoms: _457  and  _460
REMARK  189  A    between atoms: _460  and  _461
REMARK  190  A    between atoms: _461  and  _462
REMARK  191  A    between atoms: _465  and  _467
REMARK  192  A    between atoms: _467  and  _468
REMARK  193  A    between atoms: _467  and  _470
REMARK  194  A    between atoms: _470  and  _471
REMARK  195  A    between atoms: _471  and  _472
REMARK  196  A    between atoms: _475  and  _477
REMARK  197  A    between atoms: _477  and  _478
REMARK  198  A    between atoms: _477  and  _480
REMARK  199  A    between atoms: _480  and  _481
REMARK  200  A    between atoms: _484  and  _486
REMARK  201  A    between atoms: _486  and  _487
REMARK  202  A    between atoms: _486  and  _489
REMARK  203  A    between atoms: _492  and  _494
REMARK  204  A    between atoms: _494  and  _495
REMARK  205  A    between atoms: _494  and  _497
REMARK  206  A    between atoms: _497  and  _498
REMARK  207  A    between atoms: _498  and  _499
REMARK  208  A    between atoms: _499  and  _500
REMARK  209  A    between atoms: _500  and  _501
REMARK  210  A    between atoms: _505  and  _507
REMARK  211  A    between atoms: _507  and  _508
REMARK  212  A    between atoms: _507  and  _510
REMARK  213  A    between atoms: _510  and  _511
REMARK  214  A    between atoms: _511  and  _512
REMARK  215  A    between atoms: _515  and  _517
REMARK  216  A    between atoms: _517  and  _518
REMARK  217  A    between atoms: _517  and  _520
REMARK  218  A    between atoms: _520  and  _521
REMARK  219  A    between atoms: _523  and  _525
REMARK  220  A    between atoms: _525  and  _526
REMARK  221  A    between atoms: _525  and  _528
REMARK  222  A    between atoms: _528  and  _529
REMARK  223  A    between atoms: _529  and  _530
REMARK  224  A    between atoms: _530  and  _531
REMARK  225  A    between atoms: _540  and  _542
REMARK  226  A    between atoms: _542  and  _543
REMARK  227  A    between atoms: _542  and  _545
REMARK  228  A    between atoms: _545  and  _546
REMARK  229  A    between atoms: _549  and  _551
REMARK  230  A    between atoms: _551  and  _552
REMARK  231  A    between atoms: _551  and  _554
REMARK  232  A    between atoms: _554  and  _555
REMARK  233  A    between atoms: _560  and  _562
REMARK  234  A    between atoms: _562  and  _563
REMARK  235  A    between atoms: _562  and  _565
REMARK  236  A    between atoms: _565  and  _566
REMARK  237  A    between atoms: _566  and  _567
REMARK  238  A    between atoms: _567  and  _568
REMARK  239  A    between atoms: _577  and  _579
REMARK  240  A    between atoms: _579  and  _580
REMARK  241  A    between atoms: _579  and  _582
REMARK  242  A    between atoms: _582  and  _583
REMARK  243  A    between atoms: _586  and  _588
REMARK  244  A    between atoms: _588  and  _589
REMARK  245  A    between atoms: _588  and  _591
REMARK  246  A    between atoms: _591  and  _592
REMARK  247  A    between atoms: _595  and  _597
REMARK  248  A    between atoms: _597  and  _598
REMARK  249  A    between atoms: _597  and  _600
REMARK  250  A    between atoms: _600  and  _601
REMARK                            x       y       z     vdW  Elec       q    Type
REMARK                         _______ _______ _______ _____ _____    ______ ____
ROOT
ATOM      1  O   HOH     1    -126.980  36.807 124.355  0.00  0.00    +0.000 OA
ENDROOT
TORSDOF 0
REMARK  Name = ../refined-set-2016/2pqb/2pqb_pocket.pdb
REMARK  250 active torsions:
REMARK  status: ('A' for Active; 'I' for Inactive)
REMARK    1  A    between atoms: _1  and  _3
REMARK    2  A    between atoms: _3  and  _4
REMARK    3  A    between atoms: _3  and  _6
REMARK    4  A    between atoms: _6  and  _7
REMARK    5  A    between atoms: _10  and  _12
REMARK    6  A    between atoms: _12  and  _13
REMARK    7  A    between atoms: _12  and  _15
REMARK    8  A    between atoms: _15  and  _16
REMARK    9  A    between atoms: _16  and  _17
REMARK   10  A    between atoms: _17  and  _18
REMARK   11  A    between atoms: _18  and  _19
REMARK   12  A    between atoms: _23  and  _25
REMARK   13  A    between atoms: _25  and  _26
REMARK   14  A    between atoms: _25  and  _28
REMARK   15  A    between atoms: _28  and  _29
REMARK   16  A    between atoms: _31  and  _33
REMARK   17  A    between atoms: _33  and  _34
REMARK   18  A    between atoms: _33  and  _36
REMARK   19  A    between atoms: _36  and  _37
REMARK   20  A    between atoms: _40  and  _42
REMARK   21  A    between atoms: _42  and  _43
REMARK   22  A    between atoms: _42  and  _45
REMARK   23  A    between atoms: _45  and  _46
REMARK   24  A    between atoms: _48  and  _50
REMARK   25  A    between atoms: _50  and  _51
REMARK   26  A    between atoms: _50  and  _53
REMARK   27  A    between atoms: _53  and  _54
REMARK   28  A    between atoms: _59  and  _61
REMARK   29  A    between atoms: _61  and  _62
REMARK   30  A    between atoms: _61  and  _64
REMARK   31  A    between atoms: _64  and  _65
REMARK   32  A    between atoms: _65  and  _66
REMARK   33  A    between atoms: _66  and  _67
REMARK   34  A    between atoms: _76  and  _78
REMARK   35  A    between atoms: _78  and  _79
REMARK   36  A    between atoms: _78  and  _81
REMARK   37  A    between atoms: _81  and  _82
REMARK   38  A    between atoms: _85  and  _87
REMARK   39  A    between atoms: _87  and  _88
REMARK   40  A    between atoms: _87  and  _90
REMARK   41  A    between atoms: _90  and  _91
REMARK   42  A    between atoms: _94  and  _96
REMARK   43  A    between atoms: _96  and  _97
REMARK   44  A    between atoms: _96  and  _99
REMARK   45  A    between atoms: _99  and  _100
REMARK   46  A    between atoms: _106  and  _108
REMARK   47  A    between atoms: _108  and  _109
REMARK   48  A    between atoms: _108  and  _111
REMARK   49  A    between atoms: _111  and  _112
REMARK   50  A    between atoms: _117  and  _119
REMARK   51  A    between atoms: _119  and  _120
REMARK   52  A    between atoms: _123  and  _125
REMARK   53  A    between atoms: _125  and  _126
REMARK   54  A    between atoms: _129  and  _131
REMARK   55  A    between atoms: _131  and  _132
REMARK   56  A    between atoms: _131  and  _134
REMARK   57  A    between atoms: _134  and  _135
REMARK   58  A    between atoms: _138  and  _140
REMARK   59  A    between atoms: _140  and  _141
REMARK   60  A    between atoms: _143  and  _145
REMARK   61  A    between atoms: _145  and  _146
REMARK   62  A    between atoms: _145  and  _148
REMARK   63  A    between atoms: _150  and  _152
REMARK   64  A    between atoms: _152  and  _153
REMARK   65  A    between atoms: _152  and  _155
REMARK   66  A    between atoms: _155  and  _156
REMARK   67  A    between atoms: _156  and  _157
REMARK   68  A    between atoms: _157  and  _158
REMARK   69  A    between atoms: _167  and  _169
REMARK   70  A    between atoms: _169  and  _170
REMARK   71  A    between atoms: _169  and  _172
REMARK   72  A    between atoms: _172  and  _173
REMARK   73  A    between atoms: _176  and  _178
REMARK   74  A    between atoms: _178  and  _179
REMARK   75  A    between atoms: _178  and  _181
REMARK   76  A    between atoms: _181  and  _182
REMARK   77  A    between atoms: _184  and  _186
REMARK   78  A    between atoms: _186  and  _187
REMARK   79  A    between atoms: _186  and  _189
REMARK   80  A    between atoms: _189  and  _190
REMARK   81  A    between atoms: _193  and  _195
REMARK   82  A    between atoms: _195  and  _196
REMARK   83  A    between atoms: _195  and  _198
REMARK   84  A    between atoms: _198  and  _199
REMARK   85  A    between atoms: _199  and  _200
REMARK   86  A    between atoms: _200  and  _201
REMARK   87  A    between atoms: _211  and  _212
REMARK   88  A    between atoms: _217  and  _219
REMARK   89  A    between atoms: _219  and  _220
REMARK   90  A    between atoms: _219  and  _222
REMARK   91  A    between atoms: _222  and  _223
REMARK   92  A    between atoms: _223  and  _224
REMARK   93  A    between atoms: _224  and  _225
REMARK   94  A    between atoms: _234  and  _236
REMARK   95  A    between atoms: _236  and  _237
REMARK   96  A    between atoms: _236  and  _239
REMARK   97  A    between atoms: _242  and  _244
REMARK   98  A    between atoms: _244  and  _245
REMARK   99  A    between atoms: _244  and  _247
REMARK  100  A    between atoms: _250  and  _252
REMARK  101  A    between atoms: _252  and  _253
REMARK  102  A    between atoms: _252  and  _255
REMARK  103  A    between atoms: _255  and  _256
REMARK  104  A    between atoms: _256  and  _257
REMARK  105  A    between atoms: _259  and  _261
REMARK  106  A    between atoms: _261  and  _262
REMARK  107  A    between atoms: _265  and  _267
REMARK  108  A    between atoms: _267  and  _268
REMARK  109  A    between atoms: _267  and  _270
REMARK  110  A    between atoms: _270  and  _271
REMARK  111  A    between atoms: _273  and  _275
REMARK  112  A    between atoms: _275  and  _276
REMARK  113  A    between atoms: _279  and  _281
REMARK  114  A    between atoms: _281  and  _282
REMARK  115  A    between atoms: _281  and  _284
REMARK  116  A    between atoms: _284  and  _285
REMARK  117  A    between atoms: _285  and  _286
REMARK  118  A    between atoms: _291  and  _293
REMARK  119  A    between atoms: _293  and  _294
REMARK  120  A    between atoms: _293  and  _296
REMARK  121  A    between atoms: _299  and  _301
REMARK  122  A    between atoms: _301  and  _302
REMARK  123  A    between atoms: _301  and  _304
REMARK  124  A    between atoms: _304  and  _305
REMARK  125  A    between atoms: _305  and  _306
REMARK  126  A    between atoms: _306  and  _307
REMARK  127  A    between atoms: _307  and  _308
REMARK  128  A    between atoms: _312  and  _314
REMARK  129  A    between atoms: _314  and  _315
REMARK  130  A    between atoms: _314  and  _317
REMARK  131  A    between atoms: _317  and  _318
REMARK  132  A    between atoms: _320  and  _322
REMARK  133  A    between atoms: _322  and  _323
REMARK  134  A    between atoms: _326  and  _328
REMARK  135  A    between atoms: _328  and  _329
REMARK  136  A    between atoms: _328  and  _331
REMARK  137  A    between atoms: _331  and  _332
REMARK  138  A    between atoms: _335  and  _337
REMARK  139  A    between atoms: _337  and  _338
REMARK  140  A    between atoms: _337  and  _340
REMARK  141  A    between atoms: _340  and  _341
REMARK  142  A    between atoms: _341  and  _342
REMARK  143  A    between atoms: _342  and  _343
REMARK  144  A    between atoms: _352  and  _354
REMARK  145  A    between atoms: _354  and  _355
REMARK  146  A    between atoms: _354  and  _357
REMARK  147  A    between atoms: _357  and  _358
REMARK  148  A    between atoms: _361  and  _363
REMARK  149  A    between atoms: _363  and  _364
REMARK  150  A    between atoms: _363  and  _366
REMARK  151  A    between atoms: _366  and  _367
REMARK  152  A    between atoms: _372  and  _374
REMARK  153  A    between atoms: _374  and  _375
REMARK  154  A    between atoms: _374  and  _377
REMARK  155  A    between atoms: _377  and  _378
REMARK  156  A    between atoms: _381  and  _383
REMARK  157  A    between atoms: _383  and  _384
REMARK  158  A    between atoms: _383  and  _386
REMARK  159  A    between atoms: _386  and  _387
REMARK  160  A    between atoms: _390  and  _392
REMARK  161  A    between atoms: _392  and  _393
REMARK  162  A    between atoms: _392  and  _395
REMARK  163  A    between atoms: _395  and  _396
REMARK  164  A    between atoms: _398  and  _400
REMARK  165  A    between atoms: _400  and  _401
REMARK  166  A    between atoms: _400  and  _403
REMARK  167  A    between atoms: _403  and  _404
REMARK  168  A    between atoms: _404  and  _405
REMARK  169  A    between atoms: _405  and  _406
REMARK  170  A    between atoms: _415  and  _417
REMARK  171  A    between atoms: _417  and  _418
REMARK  172  A    between atoms: _422  and  _423
REMARK  173  A    between atoms: _428  and  _430
REMARK  174  A    between atoms: _430  and  _431
REMARK  175  A    between atoms: _430  and  _433
REMARK  176  A    between atoms: _433  and  _434
REMARK  177  A    between atoms: _434  and  _435
REMARK  178  A    between atoms: _437  and  _439
REMARK  179  A    between atoms: _439  and  _440
REMARK  180  A    between atoms: _439  and  _442
REMARK  181  A    between atoms: _442  and  _443
REMARK  182  A    between atoms: _446  and  _448
REMARK  183  A    between atoms: _448  and  _449
REMARK  184  A    between atoms: _448  and  _451
REMARK  185  A    between atoms: _451  and  _452
REMARK  186  A    between atoms: _455  and  _457
REMARK  187  A    between atoms: _457  and  _458
REMARK  188  A    between atoms: _457  and  _460
REMARK  189  A    between atoms: _460  and  _461
REMARK  190  A    between atoms: _461  and  _462
REMARK  191  A    between atoms: _465  and  _467
REMARK  192  A    between atoms: _467  and  _468
REMARK  193  A    between atoms: _467  and  _470
REMARK  194  A    between atoms: _470  and  _471
REMARK  195  A    between atoms: _471  and  _472
REMARK  196  A    between atoms: _475  and  _477
REMARK  197  A    between atoms: _477  and  _478
REMARK  198  A    between atoms: _477  and  _480
REMARK  199  A    between atoms: _480  and  _481
REMARK  200  A    between atoms: _484  and  _486
REMARK  201  A    between atoms: _486  and  _487
REMARK  202  A    between atoms: _486  and  _489
REMARK  203  A    between atoms: _492  and  _494
REMARK  204  A    between atoms: _494  and  _495
REMARK  205  A    between atoms: _494  and  _497
REMARK  206  A    between atoms: _497  and  _498
REMARK  207  A    between atoms: _498  and  _499
REMARK  208  A    between atoms: _499  and  _500
REMARK  209  A    between atoms: _500  and  _501
REMARK  210  A    between atoms: _505  and  _507
REMARK  211  A    between atoms: _507  and  _508
REMARK  212  A    between atoms: _507  and  _510
REMARK  213  A    between atoms: _510  and  _511
REMARK  214  A    between atoms: _511  and  _512
REMARK  215  A    between atoms: _515  and  _517
REMARK  216  A    between atoms: _517  and  _518
REMARK  217  A    between atoms: _517  and  _520
REMARK  218  A    between atoms: _520  and  _521
REMARK  219  A    between atoms: _523  and  _525
REMARK  220  A    between atoms: _525  and  _526
REMARK  221  A    between atoms: _525  and  _528
REMARK  222  A    between atoms: _528  and  _529
REMARK  223  A    between atoms: _529  and  _530
REMARK  224  A    between atoms: _530  and  _531
REMARK  225  A    between atoms: _540  and  _542
REMARK  226  A    between atoms: _542  and  _543
REMARK  227  A    between atoms: _542  and  _545
REMARK  228  A    between atoms: _545  and  _546
REMARK  229  A    between atoms: _549  and  _551
REMARK  230  A    between atoms: _551  and  _552
REMARK  231  A    between atoms: _551  and  _554
REMARK  232  A    between atoms: _554  and  _555
REMARK  233  A    between atoms: _560  and  _562
REMARK  234  A    between atoms: _562  and  _563
REMARK  235  A    between atoms: _562  and  _565
REMARK  236  A    between atoms: _565  and  _566
REMARK  237  A    between atoms: _566  and  _567
REMARK  238  A    between atoms: _567  and  _568
REMARK  239  A    between atoms: _577  and  _579
REMARK  240  A    between atoms: _579  and  _580
REMARK  241  A    between atoms: _579  and  _582
REMARK  242  A    between atoms: _582  and  _583
REMARK  243  A    between atoms: _586  and  _588
REMARK  244  A    between atoms: _588  and  _589
REMARK  245  A    between atoms: _588  and  _591
REMARK  246  A    between atoms: _591  and  _592
REMARK  247  A    between atoms: _595  and  _597
REMARK  248  A    between atoms: _597  and  _598
REMARK  249  A    between atoms: _597  and  _600
REMARK  250  A    between atoms: _600  and  _601
REMARK                            x       y       z     vdW  Elec       q    Type
REMARK                         _______ _______ _______ _____ _____    ______ ____
ROOT
ATOM      1  O   HOH     1    -134.379  21.932 134.412  0.00  0.00    +0.000 OA
ENDROOT
TORSDOF 0
REMARK  Name = ../refined-set-2016/2pqb/2pqb_pocket.pdb
REMARK  250 active torsions:
REMARK  status: ('A' for Active; 'I' for Inactive)
REMARK    1  A    between atoms: _1  and  _3
REMARK    2  A    between atoms: _3  and  _4
REMARK    3  A    between atoms: _3  and  _6
REMARK    4  A    between atoms: _6  and  _7
REMARK    5  A    between atoms: _10  and  _12
REMARK    6  A    between atoms: _12  and  _13
REMARK    7  A    between atoms: _12  and  _15
REMARK    8  A    between atoms: _15  and  _16
REMARK    9  A    between atoms: _16  and  _17
REMARK   10  A    between atoms: _17  and  _18
REMARK   11  A    between atoms: _18  and  _19
REMARK   12  A    between atoms: _23  and  _25
REMARK   13  A    between atoms: _25  and  _26
REMARK   14  A    between atoms: _25  and  _28
REMARK   15  A    between atoms: _28  and  _29
REMARK   16  A    between atoms: _31  and  _33
REMARK   17  A    between atoms: _33  and  _34
REMARK   18  A    between atoms: _33  and  _36
REMARK   19  A    between atoms: _36  and  _37
REMARK   20  A    between atoms: _40  and  _42
REMARK   21  A    between atoms: _42  and  _43
REMARK   22  A    between atoms: _42  and  _45
REMARK   23  A    between atoms: _45  and  _46
REMARK   24  A    between atoms: _48  and  _50
REMARK   25  A    between atoms: _50  and  _51
REMARK   26  A    between atoms: _50  and  _53
REMARK   27  A    between atoms: _53  and  _54
REMARK   28  A    between atoms: _59  and  _61
REMARK   29  A    between atoms: _61  and  _62
REMARK   30  A    between atoms: _61  and  _64
REMARK   31  A    between atoms: _64  and  _65
REMARK   32  A    between atoms: _65  and  _66
REMARK   33  A    between atoms: _66  and  _67
REMARK   34  A    between atoms: _76  and  _78
REMARK   35  A    between atoms: _78  and  _79
REMARK   36  A    between atoms: _78  and  _81
REMARK   37  A    between atoms: _81  and  _82
REMARK   38  A    between atoms: _85  and  _87
REMARK   39  A    between atoms: _87  and  _88
REMARK   40  A    between atoms: _87  and  _90
REMARK   41  A    between atoms: _90  and  _91
REMARK   42  A    between atoms: _94  and  _96
REMARK   43  A    between atoms: _96  and  _97
REMARK   44  A    between atoms: _96  and  _99
REMARK   45  A    between atoms: _99  and  _100
REMARK   46  A    between atoms: _106  and  _108
REMARK   47  A    between atoms: _108  and  _109
REMARK   48  A    between atoms: _108  and  _111
REMARK   49  A    between atoms: _111  and  _112
REMARK   50  A    between atoms: _117  and  _119
REMARK   51  A    between atoms: _119  and  _120
REMARK   52  A    between atoms: _123  and  _125
REMARK   53  A    between atoms: _125  and  _126
REMARK   54  A    between atoms: _129  and  _131
REMARK   55  A    between atoms: _131  and  _132
REMARK   56  A    between atoms: _131  and  _134
REMARK   57  A    between atoms: _134  and  _135
REMARK   58  A    between atoms: _138  and  _140
REMARK   59  A    between atoms: _140  and  _141
REMARK   60  A    between atoms: _143  and  _145
REMARK   61  A    between atoms: _145  and  _146
REMARK   62  A    between atoms: _145  and  _148
REMARK   63  A    between atoms: _150  and  _152
REMARK   64  A    between atoms: _152  and  _153
REMARK   65  A    between atoms: _152  and  _155
REMARK   66  A    between atoms: _155  and  _156
REMARK   67  A    between atoms: _156  and  _157
REMARK   68  A    between atoms: _157  and  _158
REMARK   69  A    between atoms: _167  and  _169
REMARK   70  A    between atoms: _169  and  _170
REMARK   71  A    between atoms: _169  and  _172
REMARK   72  A    between atoms: _172  and  _173
REMARK   73  A    between atoms: _176  and  _178
REMARK   74  A    between atoms: _178  and  _179
REMARK   75  A    between atoms: _178  and  _181
REMARK   76  A    between atoms: _181  and  _182
REMARK   77  A    between atoms: _184  and  _186
REMARK   78  A    between atoms: _186  and  _187
REMARK   79  A    between atoms: _186  and  _189
REMARK   80  A    between atoms: _189  and  _190
REMARK   81  A    between atoms: _193  and  _195
REMARK   82  A    between atoms: _195  and  _196
REMARK   83  A    between atoms: _195  and  _198
REMARK   84  A    between atoms: _198  and  _199
REMARK   85  A    between atoms: _199  and  _200
REMARK   86  A    between atoms: _200  and  _201
REMARK   87  A    between atoms: _211  and  _212
REMARK   88  A    between atoms: _217  and  _219
REMARK   89  A    between atoms: _219  and  _220
REMARK   90  A    between atoms: _219  and  _222
REMARK   91  A    between atoms: _222  and  _223
REMARK   92  A    between atoms: _223  and  _224
REMARK   93  A    between atoms: _224  and  _225
REMARK   94  A    between atoms: _234  and  _236
REMARK   95  A    between atoms: _236  and  _237
REMARK   96  A    between atoms: _236  and  _239
REMARK   97  A    between atoms: _242  and  _244
REMARK   98  A    between atoms: _244  and  _245
REMARK   99  A    between atoms: _244  and  _247
REMARK  100  A    between atoms: _250  and  _252
REMARK  101  A    between atoms: _252  and  _253
REMARK  102  A    between atoms: _252  and  _255
REMARK  103  A    between atoms: _255  and  _256
REMARK  104  A    between atoms: _256  and  _257
REMARK  105  A    between atoms: _259  and  _261
REMARK  106  A    between atoms: _261  and  _262
REMARK  107  A    between atoms: _265  and  _267
REMARK  108  A    between atoms: _267  and  _268
REMARK  109  A    between atoms: _267  and  _270
REMARK  110  A    between atoms: _270  and  _271
REMARK  111  A    between atoms: _273  and  _275
REMARK  112  A    between atoms: _275  and  _276
REMARK  113  A    between atoms: _279  and  _281
REMARK  114  A    between atoms: _281  and  _282
REMARK  115  A    between atoms: _281  and  _284
REMARK  116  A    between atoms: _284  and  _285
REMARK  117  A    between atoms: _285  and  _286
REMARK  118  A    between atoms: _291  and  _293
REMARK  119  A    between atoms: _293  and  _294
REMARK  120  A    between atoms: _293  and  _296
REMARK  121  A    between atoms: _299  and  _301
REMARK  122  A    between atoms: _301  and  _302
REMARK  123  A    between atoms: _301  and  _304
REMARK  124  A    between atoms: _304  and  _305
REMARK  125  A    between atoms: _305  and  _306
REMARK  126  A    between atoms: _306  and  _307
REMARK  127  A    between atoms: _307  and  _308
REMARK  128  A    between atoms: _312  and  _314
REMARK  129  A    between atoms: _314  and  _315
REMARK  130  A    between atoms: _314  and  _317
REMARK  131  A    between atoms: _317  and  _318
REMARK  132  A    between atoms: _320  and  _322
REMARK  133  A    between atoms: _322  and  _323
REMARK  134  A    between atoms: _326  and  _328
REMARK  135  A    between atoms: _328  and  _329
REMARK  136  A    between atoms: _328  and  _331
REMARK  137  A    between atoms: _331  and  _332
REMARK  138  A    between atoms: _335  and  _337
REMARK  139  A    between atoms: _337  and  _338
REMARK  140  A    between atoms: _337  and  _340
REMARK  141  A    between atoms: _340  and  _341
REMARK  142  A    between atoms: _341  and  _342
REMARK  143  A    between atoms: _342  and  _343
REMARK  144  A    between atoms: _352  and  _354
REMARK  145  A    between atoms: _354  and  _355
REMARK  146  A    between atoms: _354  and  _357
REMARK  147  A    between atoms: _357  and  _358
REMARK  148  A    between atoms: _361  and  _363
REMARK  149  A    between atoms: _363  and  _364
REMARK  150  A    between atoms: _363  and  _366
REMARK  151  A    between atoms: _366  and  _367
REMARK  152  A    between atoms: _372  and  _374
REMARK  153  A    between atoms: _374  and  _375
REMARK  154  A    between atoms: _374  and  _377
REMARK  155  A    between atoms: _377  and  _378
REMARK  156  A    between atoms: _381  and  _383
REMARK  157  A    between atoms: _383  and  _384
REMARK  158  A    between atoms: _383  and  _386
REMARK  159  A    between atoms: _386  and  _387
REMARK  160  A    between atoms: _390  and  _392
REMARK  161  A    between atoms: _392  and  _393
REMARK  162  A    between atoms: _392  and  _395
REMARK  163  A    between atoms: _395  and  _396
REMARK  164  A    between atoms: _398  and  _400
REMARK  165  A    between atoms: _400  and  _401
REMARK  166  A    between atoms: _400  and  _403
REMARK  167  A    between atoms: _403  and  _404
REMARK  168  A    between atoms: _404  and  _405
REMARK  169  A    between atoms: _405  and  _406
REMARK  170  A    between atoms: _415  and  _417
REMARK  171  A    between atoms: _417  and  _418
REMARK  172  A    between atoms: _422  and  _423
REMARK  173  A    between atoms: _428  and  _430
REMARK  174  A    between atoms: _430  and  _431
REMARK  175  A    between atoms: _430  and  _433
REMARK  176  A    between atoms: _433  and  _434
REMARK  177  A    between atoms: _434  and  _435
REMARK  178  A    between atoms: _437  and  _439
REMARK  179  A    between atoms: _439  and  _440
REMARK  180  A    between atoms: _439  and  _442
REMARK  181  A    between atoms: _442  and  _443
REMARK  182  A    between atoms: _446  and  _448
REMARK  183  A    between atoms: _448  and  _449
REMARK  184  A    between atoms: _448  and  _451
REMARK  185  A    between atoms: _451  and  _452
REMARK  186  A    between atoms: _455  and  _457
REMARK  187  A    between atoms: _457  and  _458
REMARK  188  A    between atoms: _457  and  _460
REMARK  189  A    between atoms: _460  and  _461
REMARK  190  A    between atoms: _461  and  _462
REMARK  191  A    between atoms: _465  and  _467
REMARK  192  A    between atoms: _467  and  _468
REMARK  193  A    between atoms: _467  and  _470
REMARK  194  A    between atoms: _470  and  _471
REMARK  195  A    between atoms: _471  and  _472
REMARK  196  A    between atoms: _475  and  _477
REMARK  197  A    between atoms: _477  and  _478
REMARK  198  A    between atoms: _477  and  _480
REMARK  199  A    between atoms: _480  and  _481
REMARK  200  A    between atoms: _484  and  _486
REMARK  201  A    between atoms: _486  and  _487
REMARK  202  A    between atoms: _486  and  _489
REMARK  203  A    between atoms: _492  and  _494
REMARK  204  A    between atoms: _494  and  _495
REMARK  205  A    between atoms: _494  and  _497
REMARK  206  A    between atoms: _497  and  _498
REMARK  207  A    between atoms: _498  and  _499
REMARK  208  A    between atoms: _499  and  _500
REMARK  209  A    between atoms: _500  and  _501
REMARK  210  A    between atoms: _505  and  _507
REMARK  211  A    between atoms: _507  and  _508
REMARK  212  A    between atoms: _507  and  _510
REMARK  213  A    between atoms: _510  and  _511
REMARK  214  A    between atoms: _511  and  _512
REMARK  215  A    between atoms: _515  and  _517
REMARK  216  A    between atoms: _517  and  _518
REMARK  217  A    between atoms: _517  and  _520
REMARK  218  A    between atoms: _520  and  _521
REMARK  219  A    between atoms: _523  and  _525
REMARK  220  A    between atoms: _525  and  _526
REMARK  221  A    between atoms: _525  and  _528
REMARK  222  A    between atoms: _528  and  _529
REMARK  223  A    between atoms: _529  and  _530
REMARK  224  A    between atoms: _530  and  _531
REMARK  225  A    between atoms: _540  and  _542
REMARK  226  A    between atoms: _542  and  _543
REMARK  227  A    between atoms: _542  and  _545
REMARK  228  A    between atoms: _545  and  _546
REMARK  229  A    between atoms: _549  and  _551
REMARK  230  A    between atoms: _551  and  _552
REMARK  231  A    between atoms: _551  and  _554
REMARK  232  A    between atoms: _554  and  _555
REMARK  233  A    between atoms: _560  and  _562
REMARK  234  A    between atoms: _562  and  _563
REMARK  235  A    between atoms: _562  and  _565
REMARK  236  A    between atoms: _565  and  _566
REMARK  237  A    between atoms: _566  and  _567
REMARK  238  A    between atoms: _567  and  _568
REMARK  239  A    between atoms: _577  and  _579
REMARK  240  A    between atoms: _579  and  _580
REMARK  241  A    between atoms: _579  and  _582
REMARK  242  A    between atoms: _582  and  _583
REMARK  243  A    between atoms: _586  and  _588
REMARK  244  A    between atoms: _588  and  _589
REMARK  245  A    between atoms: _588  and  _591
REMARK  246  A    between atoms: _591  and  _592
REMARK  247  A    between atoms: _595  and  _597
REMARK  248  A    between atoms: _597  and  _598
REMARK  249  A    between atoms: _597  and  _600
REMARK  250  A    between atoms: _600  and  _601
REMARK                            x       y       z     vdW  Elec       q    Type
REMARK                         _______ _______ _______ _____ _____    ______ ____
ROOT
ATOM      1  O   HOH     1    -134.149  22.546 126.691  0.00  0.00    +0.000 OA
ENDROOT
TORSDOF 0
REMARK  Name = ../refined-set-2016/2pqb/2pqb_pocket.pdb
REMARK  250 active torsions:
REMARK  status: ('A' for Active; 'I' for Inactive)
REMARK    1  A    between atoms: _1  and  _3
REMARK    2  A    between atoms: _3  and  _4
REMARK    3  A    between atoms: _3  and  _6
REMARK    4  A    between atoms: _6  and  _7
REMARK    5  A    between atoms: _10  and  _12
REMARK    6  A    between atoms: _12  and  _13
REMARK    7  A    between atoms: _12  and  _15
REMARK    8  A    between atoms: _15  and  _16
REMARK    9  A    between atoms: _16  and  _17
REMARK   10  A    between atoms: _17  and  _18
REMARK   11  A    between atoms: _18  and  _19
REMARK   12  A    between atoms: _23  and  _25
REMARK   13  A    between atoms: _25  and  _26
REMARK   14  A    between atoms: _25  and  _28
REMARK   15  A    between atoms: _28  and  _29
REMARK   16  A    between atoms: _31  and  _33
REMARK   17  A    between atoms: _33  and  _34
REMARK   18  A    between atoms: _33  and  _36
REMARK   19  A    between atoms: _36  and  _37
REMARK   20  A    between atoms: _40  and  _42
REMARK   21  A    between atoms: _42  and  _43
REMARK   22  A    between atoms: _42  and  _45
REMARK   23  A    between atoms: _45  and  _46
REMARK   24  A    between atoms: _48  and  _50
REMARK   25  A    between atoms: _50  and  _51
REMARK   26  A    between atoms: _50  and  _53
REMARK   27  A    between atoms: _53  and  _54
REMARK   28  A    between atoms: _59  and  _61
REMARK   29  A    between atoms: _61  and  _62
REMARK   30  A    between atoms: _61  and  _64
REMARK   31  A    between atoms: _64  and  _65
REMARK   32  A    between atoms: _65  and  _66
REMARK   33  A    between atoms: _66  and  _67
REMARK   34  A    between atoms: _76  and  _78
REMARK   35  A    between atoms: _78  and  _79
REMARK   36  A    between atoms: _78  and  _81
REMARK   37  A    between atoms: _81  and  _82
REMARK   38  A    between atoms: _85  and  _87
REMARK   39  A    between atoms: _87  and  _88
REMARK   40  A    between atoms: _87  and  _90
REMARK   41  A    between atoms: _90  and  _91
REMARK   42  A    between atoms: _94  and  _96
REMARK   43  A    between atoms: _96  and  _97
REMARK   44  A    between atoms: _96  and  _99
REMARK   45  A    between atoms: _99  and  _100
REMARK   46  A    between atoms: _106  and  _108
REMARK   47  A    between atoms: _108  and  _109
REMARK   48  A    between atoms: _108  and  _111
REMARK   49  A    between atoms: _111  and  _112
REMARK   50  A    between atoms: _117  and  _119
REMARK   51  A    between atoms: _119  and  _120
REMARK   52  A    between atoms: _123  and  _125
REMARK   53  A    between atoms: _125  and  _126
REMARK   54  A    between atoms: _129  and  _131
REMARK   55  A    between atoms: _131  and  _132
REMARK   56  A    between atoms: _131  and  _134
REMARK   57  A    between atoms: _134  and  _135
REMARK   58  A    between atoms: _138  and  _140
REMARK   59  A    between atoms: _140  and  _141
REMARK   60  A    between atoms: _143  and  _145
REMARK   61  A    between atoms: _145  and  _146
REMARK   62  A    between atoms: _145  and  _148
REMARK   63  A    between atoms: _150  and  _152
REMARK   64  A    between atoms: _152  and  _153
REMARK   65  A    between atoms: _152  and  _155
REMARK   66  A    between atoms: _155  and  _156
REMARK   67  A    between atoms: _156  and  _157
REMARK   68  A    between atoms: _157  and  _158
REMARK   69  A    between atoms: _167  and  _169
REMARK   70  A    between atoms: _169  and  _170
REMARK   71  A    between atoms: _169  and  _172
REMARK   72  A    between atoms: _172  and  _173
REMARK   73  A    between atoms: _176  and  _178
REMARK   74  A    between atoms: _178  and  _179
REMARK   75  A    between atoms: _178  and  _181
REMARK   76  A    between atoms: _181  and  _182
REMARK   77  A    between atoms: _184  and  _186
REMARK   78  A    between atoms: _186  and  _187
REMARK   79  A    between atoms: _186  and  _189
REMARK   80  A    between atoms: _189  and  _190
REMARK   81  A    between atoms: _193  and  _195
REMARK   82  A    between atoms: _195  and  _196
REMARK   83  A    between atoms: _195  and  _198
REMARK   84  A    between atoms: _198  and  _199
REMARK   85  A    between atoms: _199  and  _200
REMARK   86  A    between atoms: _200  and  _201
REMARK   87  A    between atoms: _211  and  _212
REMARK   88  A    between atoms: _217  and  _219
REMARK   89  A    between atoms: _219  and  _220
REMARK   90  A    between atoms: _219  and  _222
REMARK   91  A    between atoms: _222  and  _223
REMARK   92  A    between atoms: _223  and  _224
REMARK   93  A    between atoms: _224  and  _225
REMARK   94  A    between atoms: _234  and  _236
REMARK   95  A    between atoms: _236  and  _237
REMARK   96  A    between atoms: _236  and  _239
REMARK   97  A    between atoms: _242  and  _244
REMARK   98  A    between atoms: _244  and  _245
REMARK   99  A    between atoms: _244  and  _247
REMARK  100  A    between atoms: _250  and  _252
REMARK  101  A    between atoms: _252  and  _253
REMARK  102  A    between atoms: _252  and  _255
REMARK  103  A    between atoms: _255  and  _256
REMARK  104  A    between atoms: _256  and  _257
REMARK  105  A    between atoms: _259  and  _261
REMARK  106  A    between atoms: _261  and  _262
REMARK  107  A    between atoms: _265  and  _267
REMARK  108  A    between atoms: _267  and  _268
REMARK  109  A    between atoms: _267  and  _270
REMARK  110  A    between atoms: _270  and  _271
REMARK  111  A    between atoms: _273  and  _275
REMARK  112  A    between atoms: _275  and  _276
REMARK  113  A    between atoms: _279  and  _281
REMARK  114  A    between atoms: _281  and  _282
REMARK  115  A    between atoms: _281  and  _284
REMARK  116  A    between atoms: _284  and  _285
REMARK  117  A    between atoms: _285  and  _286
REMARK  118  A    between atoms: _291  and  _293
REMARK  119  A    between atoms: _293  and  _294
REMARK  120  A    between atoms: _293  and  _296
REMARK  121  A    between atoms: _299  and  _301
REMARK  122  A    between atoms: _301  and  _302
REMARK  123  A    between atoms: _301  and  _304
REMARK  124  A    between atoms: _304  and  _305
REMARK  125  A    between atoms: _305  and  _306
REMARK  126  A    between atoms: _306  and  _307
REMARK  127  A    between atoms: _307  and  _308
REMARK  128  A    between atoms: _312  and  _314
REMARK  129  A    between atoms: _314  and  _315
REMARK  130  A    between atoms: _314  and  _317
REMARK  131  A    between atoms: _317  and  _318
REMARK  132  A    between atoms: _320  and  _322
REMARK  133  A    between atoms: _322  and  _323
REMARK  134  A    between atoms: _326  and  _328
REMARK  135  A    between atoms: _328  and  _329
REMARK  136  A    between atoms: _328  and  _331
REMARK  137  A    between atoms: _331  and  _332
REMARK  138  A    between atoms: _335  and  _337
REMARK  139  A    between atoms: _337  and  _338
REMARK  140  A    between atoms: _337  and  _340
REMARK  141  A    between atoms: _340  and  _341
REMARK  142  A    between atoms: _341  and  _342
REMARK  143  A    between atoms: _342  and  _343
REMARK  144  A    between atoms: _352  and  _354
REMARK  145  A    between atoms: _354  and  _355
REMARK  146  A    between atoms: _354  and  _357
REMARK  147  A    between atoms: _357  and  _358
REMARK  148  A    between atoms: _361  and  _363
REMARK  149  A    between atoms: _363  and  _364
REMARK  150  A    between atoms: _363  and  _366
REMARK  151  A    between atoms: _366  and  _367
REMARK  152  A    between atoms: _372  and  _374
REMARK  153  A    between atoms: _374  and  _375
REMARK  154  A    between atoms: _374  and  _377
REMARK  155  A    between atoms: _377  and  _378
REMARK  156  A    between atoms: _381  and  _383
REMARK  157  A    between atoms: _383  and  _384
REMARK  158  A    between atoms: _383  and  _386
REMARK  159  A    between atoms: _386  and  _387
REMARK  160  A    between atoms: _390  and  _392
REMARK  161  A    between atoms: _392  and  _393
REMARK  162  A    between atoms: _392  and  _395
REMARK  163  A    between atoms: _395  and  _396
REMARK  164  A    between atoms: _398  and  _400
REMARK  165  A    between atoms: _400  and  _401
REMARK  166  A    between atoms: _400  and  _403
REMARK  167  A    between atoms: _403  and  _404
REMARK  168  A    between atoms: _404  and  _405
REMARK  169  A    between atoms: _405  and  _406
REMARK  170  A    between atoms: _415  and  _417
REMARK  171  A    between atoms: _417  and  _418
REMARK  172  A    between atoms: _422  and  _423
REMARK  173  A    between atoms: _428  and  _430
REMARK  174  A    between atoms: _430  and  _431
REMARK  175  A    between atoms: _430  and  _433
REMARK  176  A    between atoms: _433  and  _434
REMARK  177  A    between atoms: _434  and  _435
REMARK  178  A    between atoms: _437  and  _439
REMARK  179  A    between atoms: _439  and  _440
REMARK  180  A    between atoms: _439  and  _442
REMARK  181  A    between atoms: _442  and  _443
REMARK  182  A    between atoms: _446  and  _448
REMARK  183  A    between atoms: _448  and  _449
REMARK  184  A    between atoms: _448  and  _451
REMARK  185  A    between atoms: _451  and  _452
REMARK  186  A    between atoms: _455  and  _457
REMARK  187  A    between atoms: _457  and  _458
REMARK  188  A    between atoms: _457  and  _460
REMARK  189  A    between atoms: _460  and  _461
REMARK  190  A    between atoms: _461  and  _462
REMARK  191  A    between atoms: _465  and  _467
REMARK  192  A    between atoms: _467  and  _468
REMARK  193  A    between atoms: _467  and  _470
REMARK  194  A    between atoms: _470  and  _471
REMARK  195  A    between atoms: _471  and  _472
REMARK  196  A    between atoms: _475  and  _477
REMARK  197  A    between atoms: _477  and  _478
REMARK  198  A    between atoms: _477  and  _480
REMARK  199  A    between atoms: _480  and  _481
REMARK  200  A    between atoms: _484  and  _486
REMARK  201  A    between atoms: _486  and  _487
REMARK  202  A    between atoms: _486  and  _489
REMARK  203  A    between atoms: _492  and  _494
REMARK  204  A    between atoms: _494  and  _495
REMARK  205  A    between atoms: _494  and  _497
REMARK  206  A    between atoms: _497  and  _498
REMARK  207  A    between atoms: _498  and  _499
REMARK  208  A    between atoms: _499  and  _500
REMARK  209  A    between atoms: _500  and  _501
REMARK  210  A    between atoms: _505  and  _507
REMARK  211  A    between atoms: _507  and  _508
REMARK  212  A    between atoms: _507  and  _510
REMARK  213  A    between atoms: _510  and  _511
REMARK  214  A    between atoms: _511  and  _512
REMARK  215  A    between atoms: _515  and  _517
REMARK  216  A    between atoms: _517  and  _518
REMARK  217  A    between atoms: _517  and  _520
REMARK  218  A    between atoms: _520  and  _521
REMARK  219  A    between atoms: _523  and  _525
REMARK  220  A    between atoms: _525  and  _526
REMARK  221  A    between atoms: _525  and  _528
REMARK  222  A    between atoms: _528  and  _529
REMARK  223  A    between atoms: _529  and  _530
REMARK  224  A    between atoms: _530  and  _531
REMARK  225  A    between atoms: _540  and  _542
REMARK  226  A    between atoms: _542  and  _543
REMARK  227  A    between atoms: _542  and  _545
REMARK  228  A    between atoms: _545  and  _546
REMARK  229  A    between atoms: _549  and  _551
REMARK  230  A    between atoms: _551  and  _552
REMARK  231  A    between atoms: _551  and  _554
REMARK  232  A    between atoms: _554  and  _555
REMARK  233  A    between atoms: _560  and  _562
REMARK  234  A    between atoms: _562  and  _563
REMARK  235  A    between atoms: _562  and  _565
REMARK  236  A    between atoms: _565  and  _566
REMARK  237  A    between atoms: _566  and  _567
REMARK  238  A    between atoms: _567  and  _568
REMARK  239  A    between atoms: _577  and  _579
REMARK  240  A    between atoms: _579  and  _580
REMARK  241  A    between atoms: _579  and  _582
REMARK  242  A    between atoms: _582  and  _583
REMARK  243  A    between atoms: _586  and  _588
REMARK  244  A    between atoms: _588  and  _589
REMARK  245  A    between atoms: _588  and  _591
REMARK  246  A    between atoms: _591  and  _592
REMARK  247  A    between atoms: _595  and  _597
REMARK  248  A    between atoms: _597  and  _598
REMARK  249  A    between atoms: _597  and  _600
REMARK  250  A    between atoms: _600  and  _601
REMARK                            x       y       z     vdW  Elec       q    Type
REMARK                         _______ _______ _______ _____ _____    ______ ____
ROOT
ATOM      1  O   HOH     1    -129.309  28.753 120.494  0.00  0.00    +0.000 OA
ENDROOT
TORSDOF 0
REMARK  Name = ../refined-set-2016/2pqb/2pqb_pocket.pdb
REMARK  250 active torsions:
REMARK  status: ('A' for Active; 'I' for Inactive)
REMARK    1  A    between atoms: _1  and  _3
REMARK    2  A    between atoms: _3  and  _4
REMARK    3  A    between atoms: _3  and  _6
REMARK    4  A    between atoms: _6  and  _7
REMARK    5  A    between atoms: _10  and  _12
REMARK    6  A    between atoms: _12  and  _13
REMARK    7  A    between atoms: _12  and  _15
REMARK    8  A    between atoms: _15  and  _16
REMARK    9  A    between atoms: _16  and  _17
REMARK   10  A    between atoms: _17  and  _18
REMARK   11  A    between atoms: _18  and  _19
REMARK   12  A    between atoms: _23  and  _25
REMARK   13  A    between atoms: _25  and  _26
REMARK   14  A    between atoms: _25  and  _28
REMARK   15  A    between atoms: _28  and  _29
REMARK   16  A    between atoms: _31  and  _33
REMARK   17  A    between atoms: _33  and  _34
REMARK   18  A    between atoms: _33  and  _36
REMARK   19  A    between atoms: _36  and  _37
REMARK   20  A    between atoms: _40  and  _42
REMARK   21  A    between atoms: _42  and  _43
REMARK   22  A    between atoms: _42  and  _45
REMARK   23  A    between atoms: _45  and  _46
REMARK   24  A    between atoms: _48  and  _50
REMARK   25  A    between atoms: _50  and  _51
REMARK   26  A    between atoms: _50  and  _53
REMARK   27  A    between atoms: _53  and  _54
REMARK   28  A    between atoms: _59  and  _61
REMARK   29  A    between atoms: _61  and  _62
REMARK   30  A    between atoms: _61  and  _64
REMARK   31  A    between atoms: _64  and  _65
REMARK   32  A    between atoms: _65  and  _66
REMARK   33  A    between atoms: _66  and  _67
REMARK   34  A    between atoms: _76  and  _78
REMARK   35  A    between atoms: _78  and  _79
REMARK   36  A    between atoms: _78  and  _81
REMARK   37  A    between atoms: _81  and  _82
REMARK   38  A    between atoms: _85  and  _87
REMARK   39  A    between atoms: _87  and  _88
REMARK   40  A    between atoms: _87  and  _90
REMARK   41  A    between atoms: _90  and  _91
REMARK   42  A    between atoms: _94  and  _96
REMARK   43  A    between atoms: _96  and  _97
REMARK   44  A    between atoms: _96  and  _99
REMARK   45  A    between atoms: _99  and  _100
REMARK   46  A    between atoms: _106  and  _108
REMARK   47  A    between atoms: _108  and  _109
REMARK   48  A    between atoms: _108  and  _111
REMARK   49  A    between atoms: _111  and  _112
REMARK   50  A    between atoms: _117  and  _119
REMARK   51  A    between atoms: _119  and  _120
REMARK   52  A    between atoms: _123  and  _125
REMARK   53  A    between atoms: _125  and  _126
REMARK   54  A    between atoms: _129  and  _131
REMARK   55  A    between atoms: _131  and  _132
REMARK   56  A    between atoms: _131  and  _134
REMARK   57  A    between atoms: _134  and  _135
REMARK   58  A    between atoms: _138  and  _140
REMARK   59  A    between atoms: _140  and  _141
REMARK   60  A    between atoms: _143  and  _145
REMARK   61  A    between atoms: _145  and  _146
REMARK   62  A    between atoms: _145  and  _148
REMARK   63  A    between atoms: _150  and  _152
REMARK   64  A    between atoms: _152  and  _153
REMARK   65  A    between atoms: _152  and  _155
REMARK   66  A    between atoms: _155  and  _156
REMARK   67  A    between atoms: _156  and  _157
REMARK   68  A    between atoms: _157  and  _158
REMARK   69  A    between atoms: _167  and  _169
REMARK   70  A    between atoms: _169  and  _170
REMARK   71  A    between atoms: _169  and  _172
REMARK   72  A    between atoms: _172  and  _173
REMARK   73  A    between atoms: _176  and  _178
REMARK   74  A    between atoms: _178  and  _179
REMARK   75  A    between atoms: _178  and  _181
REMARK   76  A    between atoms: _181  and  _182
REMARK   77  A    between atoms: _184  and  _186
REMARK   78  A    between atoms: _186  and  _187
REMARK   79  A    between atoms: _186  and  _189
REMARK   80  A    between atoms: _189  and  _190
REMARK   81  A    between atoms: _193  and  _195
REMARK   82  A    between atoms: _195  and  _196
REMARK   83  A    between atoms: _195  and  _198
REMARK   84  A    between atoms: _198  and  _199
REMARK   85  A    between atoms: _199  and  _200
REMARK   86  A    between atoms: _200  and  _201
REMARK   87  A    between atoms: _211  and  _212
REMARK   88  A    between atoms: _217  and  _219
REMARK   89  A    between atoms: _219  and  _220
REMARK   90  A    between atoms: _219  and  _222
REMARK   91  A    between atoms: _222  and  _223
REMARK   92  A    between atoms: _223  and  _224
REMARK   93  A    between atoms: _224  and  _225
REMARK   94  A    between atoms: _234  and  _236
REMARK   95  A    between atoms: _236  and  _237
REMARK   96  A    between atoms: _236  and  _239
REMARK   97  A    between atoms: _242  and  _244
REMARK   98  A    between atoms: _244  and  _245
REMARK   99  A    between atoms: _244  and  _247
REMARK  100  A    between atoms: _250  and  _252
REMARK  101  A    between atoms: _252  and  _253
REMARK  102  A    between atoms: _252  and  _255
REMARK  103  A    between atoms: _255  and  _256
REMARK  104  A    between atoms: _256  and  _257
REMARK  105  A    between atoms: _259  and  _261
REMARK  106  A    between atoms: _261  and  _262
REMARK  107  A    between atoms: _265  and  _267
REMARK  108  A    between atoms: _267  and  _268
REMARK  109  A    between atoms: _267  and  _270
REMARK  110  A    between atoms: _270  and  _271
REMARK  111  A    between atoms: _273  and  _275
REMARK  112  A    between atoms: _275  and  _276
REMARK  113  A    between atoms: _279  and  _281
REMARK  114  A    between atoms: _281  and  _282
REMARK  115  A    between atoms: _281  and  _284
REMARK  116  A    between atoms: _284  and  _285
REMARK  117  A    between atoms: _285  and  _286
REMARK  118  A    between atoms: _291  and  _293
REMARK  119  A    between atoms: _293  and  _294
REMARK  120  A    between atoms: _293  and  _296
REMARK  121  A    between atoms: _299  and  _301
REMARK  122  A    between atoms: _301  and  _302
REMARK  123  A    between atoms: _301  and  _304
REMARK  124  A    between atoms: _304  and  _305
REMARK  125  A    between atoms: _305  and  _306
REMARK  126  A    between atoms: _306  and  _307
REMARK  127  A    between atoms: _307  and  _308
REMARK  128  A    between atoms: _312  and  _314
REMARK  129  A    between atoms: _314  and  _315
REMARK  130  A    between atoms: _314  and  _317
REMARK  131  A    between atoms: _317  and  _318
REMARK  132  A    between atoms: _320  and  _322
REMARK  133  A    between atoms: _322  and  _323
REMARK  134  A    between atoms: _326  and  _328
REMARK  135  A    between atoms: _328  and  _329
REMARK  136  A    between atoms: _328  and  _331
REMARK  137  A    between atoms: _331  and  _332
REMARK  138  A    between atoms: _335  and  _337
REMARK  139  A    between atoms: _337  and  _338
REMARK  140  A    between atoms: _337  and  _340
REMARK  141  A    between atoms: _340  and  _341
REMARK  142  A    between atoms: _341  and  _342
REMARK  143  A    between atoms: _342  and  _343
REMARK  144  A    between atoms: _352  and  _354
REMARK  145  A    between atoms: _354  and  _355
REMARK  146  A    between atoms: _354  and  _357
REMARK  147  A    between atoms: _357  and  _358
REMARK  148  A    between atoms: _361  and  _363
REMARK  149  A    between atoms: _363  and  _364
REMARK  150  A    between atoms: _363  and  _366
REMARK  151  A    between atoms: _366  and  _367
REMARK  152  A    between atoms: _372  and  _374
REMARK  153  A    between atoms: _374  and  _375
REMARK  154  A    between atoms: _374  and  _377
REMARK  155  A    between atoms: _377  and  _378
REMARK  156  A    between atoms: _381  and  _383
REMARK  157  A    between atoms: _383  and  _384
REMARK  158  A    between atoms: _383  and  _386
REMARK  159  A    between atoms: _386  and  _387
REMARK  160  A    between atoms: _390  and  _392
REMARK  161  A    between atoms: _392  and  _393
REMARK  162  A    between atoms: _392  and  _395
REMARK  163  A    between atoms: _395  and  _396
REMARK  164  A    between atoms: _398  and  _400
REMARK  165  A    between atoms: _400  and  _401
REMARK  166  A    between atoms: _400  and  _403
REMARK  167  A    between atoms: _403  and  _404
REMARK  168  A    between atoms: _404  and  _405
REMARK  169  A    between atoms: _405  and  _406
REMARK  170  A    between atoms: _415  and  _417
REMARK  171  A    between atoms: _417  and  _418
REMARK  172  A    between atoms: _422  and  _423
REMARK  173  A    between atoms: _428  and  _430
REMARK  174  A    between atoms: _430  and  _431
REMARK  175  A    between atoms: _430  and  _433
REMARK  176  A    between atoms: _433  and  _434
REMARK  177  A    between atoms: _434  and  _435
REMARK  178  A    between atoms: _437  and  _439
REMARK  179  A    between atoms: _439  and  _440
REMARK  180  A    between atoms: _439  and  _442
REMARK  181  A    between atoms: _442  and  _443
REMARK  182  A    between atoms: _446  and  _448
REMARK  183  A    between atoms: _448  and  _449
REMARK  184  A    between atoms: _448  and  _451
REMARK  185  A    between atoms: _451  and  _452
REMARK  186  A    between atoms: _455  and  _457
REMARK  187  A    between atoms: _457  and  _458
REMARK  188  A    between atoms: _457  and  _460
REMARK  189  A    between atoms: _460  and  _461
REMARK  190  A    between atoms: _461  and  _462
REMARK  191  A    between atoms: _465  and  _467
REMARK  192  A    between atoms: _467  and  _468
REMARK  193  A    between atoms: _467  and  _470
REMARK  194  A    between atoms: _470  and  _471
REMARK  195  A    between atoms: _471  and  _472
REMARK  196  A    between atoms: _475  and  _477
REMARK  197  A    between atoms: _477  and  _478
REMARK  198  A    between atoms: _477  and  _480
REMARK  199  A    between atoms: _480  and  _481
REMARK  200  A    between atoms: _484  and  _486
REMARK  201  A    between atoms: _486  and  _487
REMARK  202  A    between atoms: _486  and  _489
REMARK  203  A    between atoms: _492  and  _494
REMARK  204  A    between atoms: _494  and  _495
REMARK  205  A    between atoms: _494  and  _497
REMARK  206  A    between atoms: _497  and  _498
REMARK  207  A    between atoms: _498  and  _499
REMARK  208  A    between atoms: _499  and  _500
REMARK  209  A    between atoms: _500  and  _501
REMARK  210  A    between atoms: _505  and  _507
REMARK  211  A    between atoms: _507  and  _508
REMARK  212  A    between atoms: _507  and  _510
REMARK  213  A    between atoms: _510  and  _511
REMARK  214  A    between atoms: _511  and  _512
REMARK  215  A    between atoms: _515  and  _517
REMARK  216  A    between atoms: _517  and  _518
REMARK  217  A    between atoms: _517  and  _520
REMARK  218  A    between atoms: _520  and  _521
REMARK  219  A    between atoms: _523  and  _525
REMARK  220  A    between atoms: _525  and  _526
REMARK  221  A    between atoms: _525  and  _528
REMARK  222  A    between atoms: _528  and  _529
REMARK  223  A    between atoms: _529  and  _530
REMARK  224  A    between atoms: _530  and  _531
REMARK  225  A    between atoms: _540  and  _542
REMARK  226  A    between atoms: _542  and  _543
REMARK  227  A    between atoms: _542  and  _545
REMARK  228  A    between atoms: _545  and  _546
REMARK  229  A    between atoms: _549  and  _551
REMARK  230  A    between atoms: _551  and  _552
REMARK  231  A    between atoms: _551  and  _554
REMARK  232  A    between atoms: _554  and  _555
REMARK  233  A    between atoms: _560  and  _562
REMARK  234  A    between atoms: _562  and  _563
REMARK  235  A    between atoms: _562  and  _565
REMARK  236  A    between atoms: _565  and  _566
REMARK  237  A    between atoms: _566  and  _567
REMARK  238  A    between atoms: _567  and  _568
REMARK  239  A    between atoms: _577  and  _579
REMARK  240  A    between atoms: _579  and  _580
REMARK  241  A    between atoms: _579  and  _582
REMARK  242  A    between atoms: _582  and  _583
REMARK  243  A    between atoms: _586  and  _588
REMARK  244  A    between atoms: _588  and  _589
REMARK  245  A    between atoms: _588  and  _591
REMARK  246  A    between atoms: _591  and  _592
REMARK  247  A    between atoms: _595  and  _597
REMARK  248  A    between atoms: _597  and  _598
REMARK  249  A    between atoms: _597  and  _600
REMARK  250  A    between atoms: _600  and  _601
REMARK                            x       y       z     vdW  Elec       q    Type
REMARK                         _______ _______ _______ _____ _____    ______ ____
ROOT
ATOM      1  O   HOH     1    -131.519  33.222 131.080  0.00  0.00    +0.000 OA
ENDROOT
TORSDOF 0
REMARK  Name = ../refined-set-2016/2pqb/2pqb_pocket.pdb
REMARK  250 active torsions:
REMARK  status: ('A' for Active; 'I' for Inactive)
REMARK    1  A    between atoms: _1  and  _3
REMARK    2  A    between atoms: _3  and  _4
REMARK    3  A    between atoms: _3  and  _6
REMARK    4  A    between atoms: _6  and  _7
REMARK    5  A    between atoms: _10  and  _12
REMARK    6  A    between atoms: _12  and  _13
REMARK    7  A    between atoms: _12  and  _15
REMARK    8  A    between atoms: _15  and  _16
REMARK    9  A    between atoms: _16  and  _17
REMARK   10  A    between atoms: _17  and  _18
REMARK   11  A    between atoms: _18  and  _19
REMARK   12  A    between atoms: _23  and  _25
REMARK   13  A    between atoms: _25  and  _26
REMARK   14  A    between atoms: _25  and  _28
REMARK   15  A    between atoms: _28  and  _29
REMARK   16  A    between atoms: _31  and  _33
REMARK   17  A    between atoms: _33  and  _34
REMARK   18  A    between atoms: _33  and  _36
REMARK   19  A    between atoms: _36  and  _37
REMARK   20  A    between atoms: _40  and  _42
REMARK   21  A    between atoms: _42  and  _43
REMARK   22  A    between atoms: _42  and  _45
REMARK   23  A    between atoms: _45  and  _46
REMARK   24  A    between atoms: _48  and  _50
REMARK   25  A    between atoms: _50  and  _51
REMARK   26  A    between atoms: _50  and  _53
REMARK   27  A    between atoms: _53  and  _54
REMARK   28  A    between atoms: _59  and  _61
REMARK   29  A    between atoms: _61  and  _62
REMARK   30  A    between atoms: _61  and  _64
REMARK   31  A    between atoms: _64  and  _65
REMARK   32  A    between atoms: _65  and  _66
REMARK   33  A    between atoms: _66  and  _67
REMARK   34  A    between atoms: _76  and  _78
REMARK   35  A    between atoms: _78  and  _79
REMARK   36  A    between atoms: _78  and  _81
REMARK   37  A    between atoms: _81  and  _82
REMARK   38  A    between atoms: _85  and  _87
REMARK   39  A    between atoms: _87  and  _88
REMARK   40  A    between atoms: _87  and  _90
REMARK   41  A    between atoms: _90  and  _91
REMARK   42  A    between atoms: _94  and  _96
REMARK   43  A    between atoms: _96  and  _97
REMARK   44  A    between atoms: _96  and  _99
REMARK   45  A    between atoms: _99  and  _100
REMARK   46  A    between atoms: _106  and  _108
REMARK   47  A    between atoms: _108  and  _109
REMARK   48  A    between atoms: _108  and  _111
REMARK   49  A    between atoms: _111  and  _112
REMARK   50  A    between atoms: _117  and  _119
REMARK   51  A    between atoms: _119  and  _120
REMARK   52  A    between atoms: _123  and  _125
REMARK   53  A    between atoms: _125  and  _126
REMARK   54  A    between atoms: _129  and  _131
REMARK   55  A    between atoms: _131  and  _132
REMARK   56  A    between atoms: _131  and  _134
REMARK   57  A    between atoms: _134  and  _135
REMARK   58  A    between atoms: _138  and  _140
REMARK   59  A    between atoms: _140  and  _141
REMARK   60  A    between atoms: _143  and  _145
REMARK   61  A    between atoms: _145  and  _146
REMARK   62  A    between atoms: _145  and  _148
REMARK   63  A    between atoms: _150  and  _152
REMARK   64  A    between atoms: _152  and  _153
REMARK   65  A    between atoms: _152  and  _155
REMARK   66  A    between atoms: _155  and  _156
REMARK   67  A    between atoms: _156  and  _157
REMARK   68  A    between atoms: _157  and  _158
REMARK   69  A    between atoms: _167  and  _169
REMARK   70  A    between atoms: _169  and  _170
REMARK   71  A    between atoms: _169  and  _172
REMARK   72  A    between atoms: _172  and  _173
REMARK   73  A    between atoms: _176  and  _178
REMARK   74  A    between atoms: _178  and  _179
REMARK   75  A    between atoms: _178  and  _181
REMARK   76  A    between atoms: _181  and  _182
REMARK   77  A    between atoms: _184  and  _186
REMARK   78  A    between atoms: _186  and  _187
REMARK   79  A    between atoms: _186  and  _189
REMARK   80  A    between atoms: _189  and  _190
REMARK   81  A    between atoms: _193  and  _195
REMARK   82  A    between atoms: _195  and  _196
REMARK   83  A    between atoms: _195  and  _198
REMARK   84  A    between atoms: _198  and  _199
REMARK   85  A    between atoms: _199  and  _200
REMARK   86  A    between atoms: _200  and  _201
REMARK   87  A    between atoms: _211  and  _212
REMARK   88  A    between atoms: _217  and  _219
REMARK   89  A    between atoms: _219  and  _220
REMARK   90  A    between atoms: _219  and  _222
REMARK   91  A    between atoms: _222  and  _223
REMARK   92  A    between atoms: _223  and  _224
REMARK   93  A    between atoms: _224  and  _225
REMARK   94  A    between atoms: _234  and  _236
REMARK   95  A    between atoms: _236  and  _237
REMARK   96  A    between atoms: _236  and  _239
REMARK   97  A    between atoms: _242  and  _244
REMARK   98  A    between atoms: _244  and  _245
REMARK   99  A    between atoms: _244  and  _247
REMARK  100  A    between atoms: _250  and  _252
REMARK  101  A    between atoms: _252  and  _253
REMARK  102  A    between atoms: _252  and  _255
REMARK  103  A    between atoms: _255  and  _256
REMARK  104  A    between atoms: _256  and  _257
REMARK  105  A    between atoms: _259  and  _261
REMARK  106  A    between atoms: _261  and  _262
REMARK  107  A    between atoms: _265  and  _267
REMARK  108  A    between atoms: _267  and  _268
REMARK  109  A    between atoms: _267  and  _270
REMARK  110  A    between atoms: _270  and  _271
REMARK  111  A    between atoms: _273  and  _275
REMARK  112  A    between atoms: _275  and  _276
REMARK  113  A    between atoms: _279  and  _281
REMARK  114  A    between atoms: _281  and  _282
REMARK  115  A    between atoms: _281  and  _284
REMARK  116  A    between atoms: _284  and  _285
REMARK  117  A    between atoms: _285  and  _286
REMARK  118  A    between atoms: _291  and  _293
REMARK  119  A    between atoms: _293  and  _294
REMARK  120  A    between atoms: _293  and  _296
REMARK  121  A    between atoms: _299  and  _301
REMARK  122  A    between atoms: _301  and  _302
REMARK  123  A    between atoms: _301  and  _304
REMARK  124  A    between atoms: _304  and  _305
REMARK  125  A    between atoms: _305  and  _306
REMARK  126  A    between atoms: _306  and  _307
REMARK  127  A    between atoms: _307  and  _308
REMARK  128  A    between atoms: _312  and  _314
REMARK  129  A    between atoms: _314  and  _315
REMARK  130  A    between atoms: _314  and  _317
REMARK  131  A    between atoms: _317  and  _318
REMARK  132  A    between atoms: _320  and  _322
REMARK  133  A    between atoms: _322  and  _323
REMARK  134  A    between atoms: _326  and  _328
REMARK  135  A    between atoms: _328  and  _329
REMARK  136  A    between atoms: _328  and  _331
REMARK  137  A    between atoms: _331  and  _332
REMARK  138  A    between atoms: _335  and  _337
REMARK  139  A    between atoms: _337  and  _338
REMARK  140  A    between atoms: _337  and  _340
REMARK  141  A    between atoms: _340  and  _341
REMARK  142  A    between atoms: _341  and  _342
REMARK  143  A    between atoms: _342  and  _343
REMARK  144  A    between atoms: _352  and  _354
REMARK  145  A    between atoms: _354  and  _355
REMARK  146  A    between atoms: _354  and  _357
REMARK  147  A    between atoms: _357  and  _358
REMARK  148  A    between atoms: _361  and  _363
REMARK  149  A    between atoms: _363  and  _364
REMARK  150  A    between atoms: _363  and  _366
REMARK  151  A    between atoms: _366  and  _367
REMARK  152  A    between atoms: _372  and  _374
REMARK  153  A    between atoms: _374  and  _375
REMARK  154  A    between atoms: _374  and  _377
REMARK  155  A    between atoms: _377  and  _378
REMARK  156  A    between atoms: _381  and  _383
REMARK  157  A    between atoms: _383  and  _384
REMARK  158  A    between atoms: _383  and  _386
REMARK  159  A    between atoms: _386  and  _387
REMARK  160  A    between atoms: _390  and  _392
REMARK  161  A    between atoms: _392  and  _393
REMARK  162  A    between atoms: _392  and  _395
REMARK  163  A    between atoms: _395  and  _396
REMARK  164  A    between atoms: _398  and  _400
REMARK  165  A    between atoms: _400  and  _401
REMARK  166  A    between atoms: _400  and  _403
REMARK  167  A    between atoms: _403  and  _404
REMARK  168  A    between atoms: _404  and  _405
REMARK  169  A    between atoms: _405  and  _406
REMARK  170  A    between atoms: _415  and  _417
REMARK  171  A    between atoms: _417  and  _418
REMARK  172  A    between atoms: _422  and  _423
REMARK  173  A    between atoms: _428  and  _430
REMARK  174  A    between atoms: _430  and  _431
REMARK  175  A    between atoms: _430  and  _433
REMARK  176  A    between atoms: _433  and  _434
REMARK  177  A    between atoms: _434  and  _435
REMARK  178  A    between atoms: _437  and  _439
REMARK  179  A    between atoms: _439  and  _440
REMARK  180  A    between atoms: _439  and  _442
REMARK  181  A    between atoms: _442  and  _443
REMARK  182  A    between atoms: _446  and  _448
REMARK  183  A    between atoms: _448  and  _449
REMARK  184  A    between atoms: _448  and  _451
REMARK  185  A    between atoms: _451  and  _452
REMARK  186  A    between atoms: _455  and  _457
REMARK  187  A    between atoms: _457  and  _458
REMARK  188  A    between atoms: _457  and  _460
REMARK  189  A    between atoms: _460  and  _461
REMARK  190  A    between atoms: _461  and  _462
REMARK  191  A    between atoms: _465  and  _467
REMARK  192  A    between atoms: _467  and  _468
REMARK  193  A    between atoms: _467  and  _470
REMARK  194  A    between atoms: _470  and  _471
REMARK  195  A    between atoms: _471  and  _472
REMARK  196  A    between atoms: _475  and  _477
REMARK  197  A    between atoms: _477  and  _478
REMARK  198  A    between atoms: _477  and  _480
REMARK  199  A    between atoms: _480  and  _481
REMARK  200  A    between atoms: _484  and  _486
REMARK  201  A    between atoms: _486  and  _487
REMARK  202  A    between atoms: _486  and  _489
REMARK  203  A    between atoms: _492  and  _494
REMARK  204  A    between atoms: _494  and  _495
REMARK  205  A    between atoms: _494  and  _497
REMARK  206  A    between atoms: _497  and  _498
REMARK  207  A    between atoms: _498  and  _499
REMARK  208  A    between atoms: _499  and  _500
REMARK  209  A    between atoms: _500  and  _501
REMARK  210  A    between atoms: _505  and  _507
REMARK  211  A    between atoms: _507  and  _508
REMARK  212  A    between atoms: _507  and  _510
REMARK  213  A    between atoms: _510  and  _511
REMARK  214  A    between atoms: _511  and  _512
REMARK  215  A    between atoms: _515  and  _517
REMARK  216  A    between atoms: _517  and  _518
REMARK  217  A    between atoms: _517  and  _520
REMARK  218  A    between atoms: _520  and  _521
REMARK  219  A    between atoms: _523  and  _525
REMARK  220  A    between atoms: _525  and  _526
REMARK  221  A    between atoms: _525  and  _528
REMARK  222  A    between atoms: _528  and  _529
REMARK  223  A    between atoms: _529  and  _530
REMARK  224  A    between atoms: _530  and  _531
REMARK  225  A    between atoms: _540  and  _542
REMARK  226  A    between atoms: _542  and  _543
REMARK  227  A    between atoms: _542  and  _545
REMARK  228  A    between atoms: _545  and  _546
REMARK  229  A    between atoms: _549  and  _551
REMARK  230  A    between atoms: _551  and  _552
REMARK  231  A    between atoms: _551  and  _554
REMARK  232  A    between atoms: _554  and  _555
REMARK  233  A    between atoms: _560  and  _562
REMARK  234  A    between atoms: _562  and  _563
REMARK  235  A    between atoms: _562  and  _565
REMARK  236  A    between atoms: _565  and  _566
REMARK  237  A    between atoms: _566  and  _567
REMARK  238  A    between atoms: _567  and  _568
REMARK  239  A    between atoms: _577  and  _579
REMARK  240  A    between atoms: _579  and  _580
REMARK  241  A    between atoms: _579  and  _582
REMARK  242  A    between atoms: _582  and  _583
REMARK  243  A    between atoms: _586  and  _588
REMARK  244  A    between atoms: _588  and  _589
REMARK  245  A    between atoms: _588  and  _591
REMARK  246  A    between atoms: _591  and  _592
REMARK  247  A    between atoms: _595  and  _597
REMARK  248  A    between atoms: _597  and  _598
REMARK  249  A    between atoms: _597  and  _600
REMARK  250  A    between atoms: _600  and  _601
REMARK                            x       y       z     vdW  Elec       q    Type
REMARK                         _______ _______ _______ _____ _____    ______ ____
ROOT
ATOM      1  O   HOH     1    -132.596  34.856 129.024  0.00  0.00    +0.000 OA
ENDROOT
TORSDOF 0
REMARK  Name = ../refined-set-2016/2pqb/2pqb_pocket.pdb
REMARK  250 active torsions:
REMARK  status: ('A' for Active; 'I' for Inactive)
REMARK    1  A    between atoms: _1  and  _3
REMARK    2  A    between atoms: _3  and  _4
REMARK    3  A    between atoms: _3  and  _6
REMARK    4  A    between atoms: _6  and  _7
REMARK    5  A    between atoms: _10  and  _12
REMARK    6  A    between atoms: _12  and  _13
REMARK    7  A    between atoms: _12  and  _15
REMARK    8  A    between atoms: _15  and  _16
REMARK    9  A    between atoms: _16  and  _17
REMARK   10  A    between atoms: _17  and  _18
REMARK   11  A    between atoms: _18  and  _19
REMARK   12  A    between atoms: _23  and  _25
REMARK   13  A    between atoms: _25  and  _26
REMARK   14  A    between atoms: _25  and  _28
REMARK   15  A    between atoms: _28  and  _29
REMARK   16  A    between atoms: _31  and  _33
REMARK   17  A    between atoms: _33  and  _34
REMARK   18  A    between atoms: _33  and  _36
REMARK   19  A    between atoms: _36  and  _37
REMARK   20  A    between atoms: _40  and  _42
REMARK   21  A    between atoms: _42  and  _43
REMARK   22  A    between atoms: _42  and  _45
REMARK   23  A    between atoms: _45  and  _46
REMARK   24  A    between atoms: _48  and  _50
REMARK   25  A    between atoms: _50  and  _51
REMARK   26  A    between atoms: _50  and  _53
REMARK   27  A    between atoms: _53  and  _54
REMARK   28  A    between atoms: _59  and  _61
REMARK   29  A    between atoms: _61  and  _62
REMARK   30  A    between atoms: _61  and  _64
REMARK   31  A    between atoms: _64  and  _65
REMARK   32  A    between atoms: _65  and  _66
REMARK   33  A    between atoms: _66  and  _67
REMARK   34  A    between atoms: _76  and  _78
REMARK   35  A    between atoms: _78  and  _79
REMARK   36  A    between atoms: _78  and  _81
REMARK   37  A    between atoms: _81  and  _82
REMARK   38  A    between atoms: _85  and  _87
REMARK   39  A    between atoms: _87  and  _88
REMARK   40  A    between atoms: _87  and  _90
REMARK   41  A    between atoms: _90  and  _91
REMARK   42  A    between atoms: _94  and  _96
REMARK   43  A    between atoms: _96  and  _97
REMARK   44  A    between atoms: _96  and  _99
REMARK   45  A    between atoms: _99  and  _100
REMARK   46  A    between atoms: _106  and  _108
REMARK   47  A    between atoms: _108  and  _109
REMARK   48  A    between atoms: _108  and  _111
REMARK   49  A    between atoms: _111  and  _112
REMARK   50  A    between atoms: _117  and  _119
REMARK   51  A    between atoms: _119  and  _120
REMARK   52  A    between atoms: _123  and  _125
REMARK   53  A    between atoms: _125  and  _126
REMARK   54  A    between atoms: _129  and  _131
REMARK   55  A    between atoms: _131  and  _132
REMARK   56  A    between atoms: _131  and  _134
REMARK   57  A    between atoms: _134  and  _135
REMARK   58  A    between atoms: _138  and  _140
REMARK   59  A    between atoms: _140  and  _141
REMARK   60  A    between atoms: _143  and  _145
REMARK   61  A    between atoms: _145  and  _146
REMARK   62  A    between atoms: _145  and  _148
REMARK   63  A    between atoms: _150  and  _152
REMARK   64  A    between atoms: _152  and  _153
REMARK   65  A    between atoms: _152  and  _155
REMARK   66  A    between atoms: _155  and  _156
REMARK   67  A    between atoms: _156  and  _157
REMARK   68  A    between atoms: _157  and  _158
REMARK   69  A    between atoms: _167  and  _169
REMARK   70  A    between atoms: _169  and  _170
REMARK   71  A    between atoms: _169  and  _172
REMARK   72  A    between atoms: _172  and  _173
REMARK   73  A    between atoms: _176  and  _178
REMARK   74  A    between atoms: _178  and  _179
REMARK   75  A    between atoms: _178  and  _181
REMARK   76  A    between atoms: _181  and  _182
REMARK   77  A    between atoms: _184  and  _186
REMARK   78  A    between atoms: _186  and  _187
REMARK   79  A    between atoms: _186  and  _189
REMARK   80  A    between atoms: _189  and  _190
REMARK   81  A    between atoms: _193  and  _195
REMARK   82  A    between atoms: _195  and  _196
REMARK   83  A    between atoms: _195  and  _198
REMARK   84  A    between atoms: _198  and  _199
REMARK   85  A    between atoms: _199  and  _200
REMARK   86  A    between atoms: _200  and  _201
REMARK   87  A    between atoms: _211  and  _212
REMARK   88  A    between atoms: _217  and  _219
REMARK   89  A    between atoms: _219  and  _220
REMARK   90  A    between atoms: _219  and  _222
REMARK   91  A    between atoms: _222  and  _223
REMARK   92  A    between atoms: _223  and  _224
REMARK   93  A    between atoms: _224  and  _225
REMARK   94  A    between atoms: _234  and  _236
REMARK   95  A    between atoms: _236  and  _237
REMARK   96  A    between atoms: _236  and  _239
REMARK   97  A    between atoms: _242  and  _244
REMARK   98  A    between atoms: _244  and  _245
REMARK   99  A    between atoms: _244  and  _247
REMARK  100  A    between atoms: _250  and  _252
REMARK  101  A    between atoms: _252  and  _253
REMARK  102  A    between atoms: _252  and  _255
REMARK  103  A    between atoms: _255  and  _256
REMARK  104  A    between atoms: _256  and  _257
REMARK  105  A    between atoms: _259  and  _261
REMARK  106  A    between atoms: _261  and  _262
REMARK  107  A    between atoms: _265  and  _267
REMARK  108  A    between atoms: _267  and  _268
REMARK  109  A    between atoms: _267  and  _270
REMARK  110  A    between atoms: _270  and  _271
REMARK  111  A    between atoms: _273  and  _275
REMARK  112  A    between atoms: _275  and  _276
REMARK  113  A    between atoms: _279  and  _281
REMARK  114  A    between atoms: _281  and  _282
REMARK  115  A    between atoms: _281  and  _284
REMARK  116  A    between atoms: _284  and  _285
REMARK  117  A    between atoms: _285  and  _286
REMARK  118  A    between atoms: _291  and  _293
REMARK  119  A    between atoms: _293  and  _294
REMARK  120  A    between atoms: _293  and  _296
REMARK  121  A    between atoms: _299  and  _301
REMARK  122  A    between atoms: _301  and  _302
REMARK  123  A    between atoms: _301  and  _304
REMARK  124  A    between atoms: _304  and  _305
REMARK  125  A    between atoms: _305  and  _306
REMARK  126  A    between atoms: _306  and  _307
REMARK  127  A    between atoms: _307  and  _308
REMARK  128  A    between atoms: _312  and  _314
REMARK  129  A    between atoms: _314  and  _315
REMARK  130  A    between atoms: _314  and  _317
REMARK  131  A    between atoms: _317  and  _318
REMARK  132  A    between atoms: _320  and  _322
REMARK  133  A    between atoms: _322  and  _323
REMARK  134  A    between atoms: _326  and  _328
REMARK  135  A    between atoms: _328  and  _329
REMARK  136  A    between atoms: _328  and  _331
REMARK  137  A    between atoms: _331  and  _332
REMARK  138  A    between atoms: _335  and  _337
REMARK  139  A    between atoms: _337  and  _338
REMARK  140  A    between atoms: _337  and  _340
REMARK  141  A    between atoms: _340  and  _341
REMARK  142  A    between atoms: _341  and  _342
REMARK  143  A    between atoms: _342  and  _343
REMARK  144  A    between atoms: _352  and  _354
REMARK  145  A    between atoms: _354  and  _355
REMARK  146  A    between atoms: _354  and  _357
REMARK  147  A    between atoms: _357  and  _358
REMARK  148  A    between atoms: _361  and  _363
REMARK  149  A    between atoms: _363  and  _364
REMARK  150  A    between atoms: _363  and  _366
REMARK  151  A    between atoms: _366  and  _367
REMARK  152  A    between atoms: _372  and  _374
REMARK  153  A    between atoms: _374  and  _375
REMARK  154  A    between atoms: _374  and  _377
REMARK  155  A    between atoms: _377  and  _378
REMARK  156  A    between atoms: _381  and  _383
REMARK  157  A    between atoms: _383  and  _384
REMARK  158  A    between atoms: _383  and  _386
REMARK  159  A    between atoms: _386  and  _387
REMARK  160  A    between atoms: _390  and  _392
REMARK  161  A    between atoms: _392  and  _393
REMARK  162  A    between atoms: _392  and  _395
REMARK  163  A    between atoms: _395  and  _396
REMARK  164  A    between atoms: _398  and  _400
REMARK  165  A    between atoms: _400  and  _401
REMARK  166  A    between atoms: _400  and  _403
REMARK  167  A    between atoms: _403  and  _404
REMARK  168  A    between atoms: _404  and  _405
REMARK  169  A    between atoms: _405  and  _406
REMARK  170  A    between atoms: _415  and  _417
REMARK  171  A    between atoms: _417  and  _418
REMARK  172  A    between atoms: _422  and  _423
REMARK  173  A    between atoms: _428  and  _430
REMARK  174  A    between atoms: _430  and  _431
REMARK  175  A    between atoms: _430  and  _433
REMARK  176  A    between atoms: _433  and  _434
REMARK  177  A    between atoms: _434  and  _435
REMARK  178  A    between atoms: _437  and  _439
REMARK  179  A    between atoms: _439  and  _440
REMARK  180  A    between atoms: _439  and  _442
REMARK  181  A    between atoms: _442  and  _443
REMARK  182  A    between atoms: _446  and  _448
REMARK  183  A    between atoms: _448  and  _449
REMARK  184  A    between atoms: _448  and  _451
REMARK  185  A    between atoms: _451  and  _452
REMARK  186  A    between atoms: _455  and  _457
REMARK  187  A    between atoms: _457  and  _458
REMARK  188  A    between atoms: _457  and  _460
REMARK  189  A    between atoms: _460  and  _461
REMARK  190  A    between atoms: _461  and  _462
REMARK  191  A    between atoms: _465  and  _467
REMARK  192  A    between atoms: _467  and  _468
REMARK  193  A    between atoms: _467  and  _470
REMARK  194  A    between atoms: _470  and  _471
REMARK  195  A    between atoms: _471  and  _472
REMARK  196  A    between atoms: _475  and  _477
REMARK  197  A    between atoms: _477  and  _478
REMARK  198  A    between atoms: _477  and  _480
REMARK  199  A    between atoms: _480  and  _481
REMARK  200  A    between atoms: _484  and  _486
REMARK  201  A    between atoms: _486  and  _487
REMARK  202  A    between atoms: _486  and  _489
REMARK  203  A    between atoms: _492  and  _494
REMARK  204  A    between atoms: _494  and  _495
REMARK  205  A    between atoms: _494  and  _497
REMARK  206  A    between atoms: _497  and  _498
REMARK  207  A    between atoms: _498  and  _499
REMARK  208  A    between atoms: _499  and  _500
REMARK  209  A    between atoms: _500  and  _501
REMARK  210  A    between atoms: _505  and  _507
REMARK  211  A    between atoms: _507  and  _508
REMARK  212  A    between atoms: _507  and  _510
REMARK  213  A    between atoms: _510  and  _511
REMARK  214  A    between atoms: _511  and  _512
REMARK  215  A    between atoms: _515  and  _517
REMARK  216  A    between atoms: _517  and  _518
REMARK  217  A    between atoms: _517  and  _520
REMARK  218  A    between atoms: _520  and  _521
REMARK  219  A    between atoms: _523  and  _525
REMARK  220  A    between atoms: _525  and  _526
REMARK  221  A    between atoms: _525  and  _528
REMARK  222  A    between atoms: _528  and  _529
REMARK  223  A    between atoms: _529  and  _530
REMARK  224  A    between atoms: _530  and  _531
REMARK  225  A    between atoms: _540  and  _542
REMARK  226  A    between atoms: _542  and  _543
REMARK  227  A    between atoms: _542  and  _545
REMARK  228  A    between atoms: _545  and  _546
REMARK  229  A    between atoms: _549  and  _551
REMARK  230  A    between atoms: _551  and  _552
REMARK  231  A    between atoms: _551  and  _554
REMARK  232  A    between atoms: _554  and  _555
REMARK  233  A    between atoms: _560  and  _562
REMARK  234  A    between atoms: _562  and  _563
REMARK  235  A    between atoms: _562  and  _565
REMARK  236  A    between atoms: _565  and  _566
REMARK  237  A    between atoms: _566  and  _567
REMARK  238  A    between atoms: _567  and  _568
REMARK  239  A    between atoms: _577  and  _579
REMARK  240  A    between atoms: _579  and  _580
REMARK  241  A    between atoms: _579  and  _582
REMARK  242  A    between atoms: _582  and  _583
REMARK  243  A    between atoms: _586  and  _588
REMARK  244  A    between atoms: _588  and  _589
REMARK  245  A    between atoms: _588  and  _591
REMARK  246  A    between atoms: _591  and  _592
REMARK  247  A    between atoms: _595  and  _597
REMARK  248  A    between atoms: _597  and  _598
REMARK  249  A    between atoms: _597  and  _600
REMARK  250  A    between atoms: _600  and  _601
REMARK                            x       y       z     vdW  Elec       q    Type
REMARK                         _______ _______ _______ _____ _____    ______ ____
ROOT
ATOM      1  O   HOH     1    -134.982  33.585 132.947  0.00  0.00    +0.000 OA
ENDROOT
TORSDOF 0
REMARK  Name = ../refined-set-2016/2pqb/2pqb_pocket.pdb
REMARK  250 active torsions:
REMARK  status: ('A' for Active; 'I' for Inactive)
REMARK    1  A    between atoms: _1  and  _3
REMARK    2  A    between atoms: _3  and  _4
REMARK    3  A    between atoms: _3  and  _6
REMARK    4  A    between atoms: _6  and  _7
REMARK    5  A    between atoms: _10  and  _12
REMARK    6  A    between atoms: _12  and  _13
REMARK    7  A    between atoms: _12  and  _15
REMARK    8  A    between atoms: _15  and  _16
REMARK    9  A    between atoms: _16  and  _17
REMARK   10  A    between atoms: _17  and  _18
REMARK   11  A    between atoms: _18  and  _19
REMARK   12  A    between atoms: _23  and  _25
REMARK   13  A    between atoms: _25  and  _26
REMARK   14  A    between atoms: _25  and  _28
REMARK   15  A    between atoms: _28  and  _29
REMARK   16  A    between atoms: _31  and  _33
REMARK   17  A    between atoms: _33  and  _34
REMARK   18  A    between atoms: _33  and  _36
REMARK   19  A    between atoms: _36  and  _37
REMARK   20  A    between atoms: _40  and  _42
REMARK   21  A    between atoms: _42  and  _43
REMARK   22  A    between atoms: _42  and  _45
REMARK   23  A    between atoms: _45  and  _46
REMARK   24  A    between atoms: _48  and  _50
REMARK   25  A    between atoms: _50  and  _51
REMARK   26  A    between atoms: _50  and  _53
REMARK   27  A    between atoms: _53  and  _54
REMARK   28  A    between atoms: _59  and  _61
REMARK   29  A    between atoms: _61  and  _62
REMARK   30  A    between atoms: _61  and  _64
REMARK   31  A    between atoms: _64  and  _65
REMARK   32  A    between atoms: _65  and  _66
REMARK   33  A    between atoms: _66  and  _67
REMARK   34  A    between atoms: _76  and  _78
REMARK   35  A    between atoms: _78  and  _79
REMARK   36  A    between atoms: _78  and  _81
REMARK   37  A    between atoms: _81  and  _82
REMARK   38  A    between atoms: _85  and  _87
REMARK   39  A    between atoms: _87  and  _88
REMARK   40  A    between atoms: _87  and  _90
REMARK   41  A    between atoms: _90  and  _91
REMARK   42  A    between atoms: _94  and  _96
REMARK   43  A    between atoms: _96  and  _97
REMARK   44  A    between atoms: _96  and  _99
REMARK   45  A    between atoms: _99  and  _100
REMARK   46  A    between atoms: _106  and  _108
REMARK   47  A    between atoms: _108  and  _109
REMARK   48  A    between atoms: _108  and  _111
REMARK   49  A    between atoms: _111  and  _112
REMARK   50  A    between atoms: _117  and  _119
REMARK   51  A    between atoms: _119  and  _120
REMARK   52  A    between atoms: _123  and  _125
REMARK   53  A    between atoms: _125  and  _126
REMARK   54  A    between atoms: _129  and  _131
REMARK   55  A    between atoms: _131  and  _132
REMARK   56  A    between atoms: _131  and  _134
REMARK   57  A    between atoms: _134  and  _135
REMARK   58  A    between atoms: _138  and  _140
REMARK   59  A    between atoms: _140  and  _141
REMARK   60  A    between atoms: _143  and  _145
REMARK   61  A    between atoms: _145  and  _146
REMARK   62  A    between atoms: _145  and  _148
REMARK   63  A    between atoms: _150  and  _152
REMARK   64  A    between atoms: _152  and  _153
REMARK   65  A    between atoms: _152  and  _155
REMARK   66  A    between atoms: _155  and  _156
REMARK   67  A    between atoms: _156  and  _157
REMARK   68  A    between atoms: _157  and  _158
REMARK   69  A    between atoms: _167  and  _169
REMARK   70  A    between atoms: _169  and  _170
REMARK   71  A    between atoms: _169  and  _172
REMARK   72  A    between atoms: _172  and  _173
REMARK   73  A    between atoms: _176  and  _178
REMARK   74  A    between atoms: _178  and  _179
REMARK   75  A    between atoms: _178  and  _181
REMARK   76  A    between atoms: _181  and  _182
REMARK   77  A    between atoms: _184  and  _186
REMARK   78  A    between atoms: _186  and  _187
REMARK   79  A    between atoms: _186  and  _189
REMARK   80  A    between atoms: _189  and  _190
REMARK   81  A    between atoms: _193  and  _195
REMARK   82  A    between atoms: _195  and  _196
REMARK   83  A    between atoms: _195  and  _198
REMARK   84  A    between atoms: _198  and  _199
REMARK   85  A    between atoms: _199  and  _200
REMARK   86  A    between atoms: _200  and  _201
REMARK   87  A    between atoms: _211  and  _212
REMARK   88  A    between atoms: _217  and  _219
REMARK   89  A    between atoms: _219  and  _220
REMARK   90  A    between atoms: _219  and  _222
REMARK   91  A    between atoms: _222  and  _223
REMARK   92  A    between atoms: _223  and  _224
REMARK   93  A    between atoms: _224  and  _225
REMARK   94  A    between atoms: _234  and  _236
REMARK   95  A    between atoms: _236  and  _237
REMARK   96  A    between atoms: _236  and  _239
REMARK   97  A    between atoms: _242  and  _244
REMARK   98  A    between atoms: _244  and  _245
REMARK   99  A    between atoms: _244  and  _247
REMARK  100  A    between atoms: _250  and  _252
REMARK  101  A    between atoms: _252  and  _253
REMARK  102  A    between atoms: _252  and  _255
REMARK  103  A    between atoms: _255  and  _256
REMARK  104  A    between atoms: _256  and  _257
REMARK  105  A    between atoms: _259  and  _261
REMARK  106  A    between atoms: _261  and  _262
REMARK  107  A    between atoms: _265  and  _267
REMARK  108  A    between atoms: _267  and  _268
REMARK  109  A    between atoms: _267  and  _270
REMARK  110  A    between atoms: _270  and  _271
REMARK  111  A    between atoms: _273  and  _275
REMARK  112  A    between atoms: _275  and  _276
REMARK  113  A    between atoms: _279  and  _281
REMARK  114  A    between atoms: _281  and  _282
REMARK  115  A    between atoms: _281  and  _284
REMARK  116  A    between atoms: _284  and  _285
REMARK  117  A    between atoms: _285  and  _286
REMARK  118  A    between atoms: _291  and  _293
REMARK  119  A    between atoms: _293  and  _294
REMARK  120  A    between atoms: _293  and  _296
REMARK  121  A    between atoms: _299  and  _301
REMARK  122  A    between atoms: _301  and  _302
REMARK  123  A    between atoms: _301  and  _304
REMARK  124  A    between atoms: _304  and  _305
REMARK  125  A    between atoms: _305  and  _306
REMARK  126  A    between atoms: _306  and  _307
REMARK  127  A    between atoms: _307  and  _308
REMARK  128  A    between atoms: _312  and  _314
REMARK  129  A    between atoms: _314  and  _315
REMARK  130  A    between atoms: _314  and  _317
REMARK  131  A    between atoms: _317  and  _318
REMARK  132  A    between atoms: _320  and  _322
REMARK  133  A    between atoms: _322  and  _323
REMARK  134  A    between atoms: _326  and  _328
REMARK  135  A    between atoms: _328  and  _329
REMARK  136  A    between atoms: _328  and  _331
REMARK  137  A    between atoms: _331  and  _332
REMARK  138  A    between atoms: _335  and  _337
REMARK  139  A    between atoms: _337  and  _338
REMARK  140  A    between atoms: _337  and  _340
REMARK  141  A    between atoms: _340  and  _341
REMARK  142  A    between atoms: _341  and  _342
REMARK  143  A    between atoms: _342  and  _343
REMARK  144  A    between atoms: _352  and  _354
REMARK  145  A    between atoms: _354  and  _355
REMARK  146  A    between atoms: _354  and  _357
REMARK  147  A    between atoms: _357  and  _358
REMARK  148  A    between atoms: _361  and  _363
REMARK  149  A    between atoms: _363  and  _364
REMARK  150  A    between atoms: _363  and  _366
REMARK  151  A    between atoms: _366  and  _367
REMARK  152  A    between atoms: _372  and  _374
REMARK  153  A    between atoms: _374  and  _375
REMARK  154  A    between atoms: _374  and  _377
REMARK  155  A    between atoms: _377  and  _378
REMARK  156  A    between atoms: _381  and  _383
REMARK  157  A    between atoms: _383  and  _384
REMARK  158  A    between atoms: _383  and  _386
REMARK  159  A    between atoms: _386  and  _387
REMARK  160  A    between atoms: _390  and  _392
REMARK  161  A    between atoms: _392  and  _393
REMARK  162  A    between atoms: _392  and  _395
REMARK  163  A    between atoms: _395  and  _396
REMARK  164  A    between atoms: _398  and  _400
REMARK  165  A    between atoms: _400  and  _401
REMARK  166  A    between atoms: _400  and  _403
REMARK  167  A    between atoms: _403  and  _404
REMARK  168  A    between atoms: _404  and  _405
REMARK  169  A    between atoms: _405  and  _406
REMARK  170  A    between atoms: _415  and  _417
REMARK  171  A    between atoms: _417  and  _418
REMARK  172  A    between atoms: _422  and  _423
REMARK  173  A    between atoms: _428  and  _430
REMARK  174  A    between atoms: _430  and  _431
REMARK  175  A    between atoms: _430  and  _433
REMARK  176  A    between atoms: _433  and  _434
REMARK  177  A    between atoms: _434  and  _435
REMARK  178  A    between atoms: _437  and  _439
REMARK  179  A    between atoms: _439  and  _440
REMARK  180  A    between atoms: _439  and  _442
REMARK  181  A    between atoms: _442  and  _443
REMARK  182  A    between atoms: _446  and  _448
REMARK  183  A    between atoms: _448  and  _449
REMARK  184  A    between atoms: _448  and  _451
REMARK  185  A    between atoms: _451  and  _452
REMARK  186  A    between atoms: _455  and  _457
REMARK  187  A    between atoms: _457  and  _458
REMARK  188  A    between atoms: _457  and  _460
REMARK  189  A    between atoms: _460  and  _461
REMARK  190  A    between atoms: _461  and  _462
REMARK  191  A    between atoms: _465  and  _467
REMARK  192  A    between atoms: _467  and  _468
REMARK  193  A    between atoms: _467  and  _470
REMARK  194  A    between atoms: _470  and  _471
REMARK  195  A    between atoms: _471  and  _472
REMARK  196  A    between atoms: _475  and  _477
REMARK  197  A    between atoms: _477  and  _478
REMARK  198  A    between atoms: _477  and  _480
REMARK  199  A    between atoms: _480  and  _481
REMARK  200  A    between atoms: _484  and  _486
REMARK  201  A    between atoms: _486  and  _487
REMARK  202  A    between atoms: _486  and  _489
REMARK  203  A    between atoms: _492  and  _494
REMARK  204  A    between atoms: _494  and  _495
REMARK  205  A    between atoms: _494  and  _497
REMARK  206  A    between atoms: _497  and  _498
REMARK  207  A    between atoms: _498  and  _499
REMARK  208  A    between atoms: _499  and  _500
REMARK  209  A    between atoms: _500  and  _501
REMARK  210  A    between atoms: _505  and  _507
REMARK  211  A    between atoms: _507  and  _508
REMARK  212  A    between atoms: _507  and  _510
REMARK  213  A    between atoms: _510  and  _511
REMARK  214  A    between atoms: _511  and  _512
REMARK  215  A    between atoms: _515  and  _517
REMARK  216  A    between atoms: _517  and  _518
REMARK  217  A    between atoms: _517  and  _520
REMARK  218  A    between atoms: _520  and  _521
REMARK  219  A    between atoms: _523  and  _525
REMARK  220  A    between atoms: _525  and  _526
REMARK  221  A    between atoms: _525  and  _528
REMARK  222  A    between atoms: _528  and  _529
REMARK  223  A    between atoms: _529  and  _530
REMARK  224  A    between atoms: _530  and  _531
REMARK  225  A    between atoms: _540  and  _542
REMARK  226  A    between atoms: _542  and  _543
REMARK  227  A    between atoms: _542  and  _545
REMARK  228  A    between atoms: _545  and  _546
REMARK  229  A    between atoms: _549  and  _551
REMARK  230  A    between atoms: _551  and  _552
REMARK  231  A    between atoms: _551  and  _554
REMARK  232  A    between atoms: _554  and  _555
REMARK  233  A    between atoms: _560  and  _562
REMARK  234  A    between atoms: _562  and  _563
REMARK  235  A    between atoms: _562  and  _565
REMARK  236  A    between atoms: _565  and  _566
REMARK  237  A    between atoms: _566  and  _567
REMARK  238  A    between atoms: _567  and  _568
REMARK  239  A    between atoms: _577  and  _579
REMARK  240  A    between atoms: _579  and  _580
REMARK  241  A    between atoms: _579  and  _582
REMARK  242  A    between atoms: _582  and  _583
REMARK  243  A    between atoms: _586  and  _588
REMARK  244  A    between atoms: _588  and  _589
REMARK  245  A    between atoms: _588  and  _591
REMARK  246  A    between atoms: _591  and  _592
REMARK  247  A    between atoms: _595  and  _597
REMARK  248  A    between atoms: _597  and  _598
REMARK  249  A    between atoms: _597  and  _600
REMARK  250  A    between atoms: _600  and  _601
REMARK                            x       y       z     vdW  Elec       q    Type
REMARK                         _______ _______ _______ _____ _____    ______ ____
ROOT
ATOM      1  O   HOH     1    -131.420  35.545 132.463  0.00  0.00    +0.000 OA
ENDROOT
TORSDOF 0
REMARK  Name = ../refined-set-2016/2pqb/2pqb_pocket.pdb
REMARK  250 active torsions:
REMARK  status: ('A' for Active; 'I' for Inactive)
REMARK    1  A    between atoms: _1  and  _3
REMARK    2  A    between atoms: _3  and  _4
REMARK    3  A    between atoms: _3  and  _6
REMARK    4  A    between atoms: _6  and  _7
REMARK    5  A    between atoms: _10  and  _12
REMARK    6  A    between atoms: _12  and  _13
REMARK    7  A    between atoms: _12  and  _15
REMARK    8  A    between atoms: _15  and  _16
REMARK    9  A    between atoms: _16  and  _17
REMARK   10  A    between atoms: _17  and  _18
REMARK   11  A    between atoms: _18  and  _19
REMARK   12  A    between atoms: _23  and  _25
REMARK   13  A    between atoms: _25  and  _26
REMARK   14  A    between atoms: _25  and  _28
REMARK   15  A    between atoms: _28  and  _29
REMARK   16  A    between atoms: _31  and  _33
REMARK   17  A    between atoms: _33  and  _34
REMARK   18  A    between atoms: _33  and  _36
REMARK   19  A    between atoms: _36  and  _37
REMARK   20  A    between atoms: _40  and  _42
REMARK   21  A    between atoms: _42  and  _43
REMARK   22  A    between atoms: _42  and  _45
REMARK   23  A    between atoms: _45  and  _46
REMARK   24  A    between atoms: _48  and  _50
REMARK   25  A    between atoms: _50  and  _51
REMARK   26  A    between atoms: _50  and  _53
REMARK   27  A    between atoms: _53  and  _54
REMARK   28  A    between atoms: _59  and  _61
REMARK   29  A    between atoms: _61  and  _62
REMARK   30  A    between atoms: _61  and  _64
REMARK   31  A    between atoms: _64  and  _65
REMARK   32  A    between atoms: _65  and  _66
REMARK   33  A    between atoms: _66  and  _67
REMARK   34  A    between atoms: _76  and  _78
REMARK   35  A    between atoms: _78  and  _79
REMARK   36  A    between atoms: _78  and  _81
REMARK   37  A    between atoms: _81  and  _82
REMARK   38  A    between atoms: _85  and  _87
REMARK   39  A    between atoms: _87  and  _88
REMARK   40  A    between atoms: _87  and  _90
REMARK   41  A    between atoms: _90  and  _91
REMARK   42  A    between atoms: _94  and  _96
REMARK   43  A    between atoms: _96  and  _97
REMARK   44  A    between atoms: _96  and  _99
REMARK   45  A    between atoms: _99  and  _100
REMARK   46  A    between atoms: _106  and  _108
REMARK   47  A    between atoms: _108  and  _109
REMARK   48  A    between atoms: _108  and  _111
REMARK   49  A    between atoms: _111  and  _112
REMARK   50  A    between atoms: _117  and  _119
REMARK   51  A    between atoms: _119  and  _120
REMARK   52  A    between atoms: _123  and  _125
REMARK   53  A    between atoms: _125  and  _126
REMARK   54  A    between atoms: _129  and  _131
REMARK   55  A    between atoms: _131  and  _132
REMARK   56  A    between atoms: _131  and  _134
REMARK   57  A    between atoms: _134  and  _135
REMARK   58  A    between atoms: _138  and  _140
REMARK   59  A    between atoms: _140  and  _141
REMARK   60  A    between atoms: _143  and  _145
REMARK   61  A    between atoms: _145  and  _146
REMARK   62  A    between atoms: _145  and  _148
REMARK   63  A    between atoms: _150  and  _152
REMARK   64  A    between atoms: _152  and  _153
REMARK   65  A    between atoms: _152  and  _155
REMARK   66  A    between atoms: _155  and  _156
REMARK   67  A    between atoms: _156  and  _157
REMARK   68  A    between atoms: _157  and  _158
REMARK   69  A    between atoms: _167  and  _169
REMARK   70  A    between atoms: _169  and  _170
REMARK   71  A    between atoms: _169  and  _172
REMARK   72  A    between atoms: _172  and  _173
REMARK   73  A    between atoms: _176  and  _178
REMARK   74  A    between atoms: _178  and  _179
REMARK   75  A    between atoms: _178  and  _181
REMARK   76  A    between atoms: _181  and  _182
REMARK   77  A    between atoms: _184  and  _186
REMARK   78  A    between atoms: _186  and  _187
REMARK   79  A    between atoms: _186  and  _189
REMARK   80  A    between atoms: _189  and  _190
REMARK   81  A    between atoms: _193  and  _195
REMARK   82  A    between atoms: _195  and  _196
REMARK   83  A    between atoms: _195  and  _198
REMARK   84  A    between atoms: _198  and  _199
REMARK   85  A    between atoms: _199  and  _200
REMARK   86  A    between atoms: _200  and  _201
REMARK   87  A    between atoms: _211  and  _212
REMARK   88  A    between atoms: _217  and  _219
REMARK   89  A    between atoms: _219  and  _220
REMARK   90  A    between atoms: _219  and  _222
REMARK   91  A    between atoms: _222  and  _223
REMARK   92  A    between atoms: _223  and  _224
REMARK   93  A    between atoms: _224  and  _225
REMARK   94  A    between atoms: _234  and  _236
REMARK   95  A    between atoms: _236  and  _237
REMARK   96  A    between atoms: _236  and  _239
REMARK   97  A    between atoms: _242  and  _244
REMARK   98  A    between atoms: _244  and  _245
REMARK   99  A    between atoms: _244  and  _247
REMARK  100  A    between atoms: _250  and  _252
REMARK  101  A    between atoms: _252  and  _253
REMARK  102  A    between atoms: _252  and  _255
REMARK  103  A    between atoms: _255  and  _256
REMARK  104  A    between atoms: _256  and  _257
REMARK  105  A    between atoms: _259  and  _261
REMARK  106  A    between atoms: _261  and  _262
REMARK  107  A    between atoms: _265  and  _267
REMARK  108  A    between atoms: _267  and  _268
REMARK  109  A    between atoms: _267  and  _270
REMARK  110  A    between atoms: _270  and  _271
REMARK  111  A    between atoms: _273  and  _275
REMARK  112  A    between atoms: _275  and  _276
REMARK  113  A    between atoms: _279  and  _281
REMARK  114  A    between atoms: _281  and  _282
REMARK  115  A    between atoms: _281  and  _284
REMARK  116  A    between atoms: _284  and  _285
REMARK  117  A    between atoms: _285  and  _286
REMARK  118  A    between atoms: _291  and  _293
REMARK  119  A    between atoms: _293  and  _294
REMARK  120  A    between atoms: _293  and  _296
REMARK  121  A    between atoms: _299  and  _301
REMARK  122  A    between atoms: _301  and  _302
REMARK  123  A    between atoms: _301  and  _304
REMARK  124  A    between atoms: _304  and  _305
REMARK  125  A    between atoms: _305  and  _306
REMARK  126  A    between atoms: _306  and  _307
REMARK  127  A    between atoms: _307  and  _308
REMARK  128  A    between atoms: _312  and  _314
REMARK  129  A    between atoms: _314  and  _315
REMARK  130  A    between atoms: _314  and  _317
REMARK  131  A    between atoms: _317  and  _318
REMARK  132  A    between atoms: _320  and  _322
REMARK  133  A    between atoms: _322  and  _323
REMARK  134  A    between atoms: _326  and  _328
REMARK  135  A    between atoms: _328  and  _329
REMARK  136  A    between atoms: _328  and  _331
REMARK  137  A    between atoms: _331  and  _332
REMARK  138  A    between atoms: _335  and  _337
REMARK  139  A    between atoms: _337  and  _338
REMARK  140  A    between atoms: _337  and  _340
REMARK  141  A    between atoms: _340  and  _341
REMARK  142  A    between atoms: _341  and  _342
REMARK  143  A    between atoms: _342  and  _343
REMARK  144  A    between atoms: _352  and  _354
REMARK  145  A    between atoms: _354  and  _355
REMARK  146  A    between atoms: _354  and  _357
REMARK  147  A    between atoms: _357  and  _358
REMARK  148  A    between atoms: _361  and  _363
REMARK  149  A    between atoms: _363  and  _364
REMARK  150  A    between atoms: _363  and  _366
REMARK  151  A    between atoms: _366  and  _367
REMARK  152  A    between atoms: _372  and  _374
REMARK  153  A    between atoms: _374  and  _375
REMARK  154  A    between atoms: _374  and  _377
REMARK  155  A    between atoms: _377  and  _378
REMARK  156  A    between atoms: _381  and  _383
REMARK  157  A    between atoms: _383  and  _384
REMARK  158  A    between atoms: _383  and  _386
REMARK  159  A    between atoms: _386  and  _387
REMARK  160  A    between atoms: _390  and  _392
REMARK  161  A    between atoms: _392  and  _393
REMARK  162  A    between atoms: _392  and  _395
REMARK  163  A    between atoms: _395  and  _396
REMARK  164  A    between atoms: _398  and  _400
REMARK  165  A    between atoms: _400  and  _401
REMARK  166  A    between atoms: _400  and  _403
REMARK  167  A    between atoms: _403  and  _404
REMARK  168  A    between atoms: _404  and  _405
REMARK  169  A    between atoms: _405  and  _406
REMARK  170  A    between atoms: _415  and  _417
REMARK  171  A    between atoms: _417  and  _418
REMARK  172  A    between atoms: _422  and  _423
REMARK  173  A    between atoms: _428  and  _430
REMARK  174  A    between atoms: _430  and  _431
REMARK  175  A    between atoms: _430  and  _433
REMARK  176  A    between atoms: _433  and  _434
REMARK  177  A    between atoms: _434  and  _435
REMARK  178  A    between atoms: _437  and  _439
REMARK  179  A    between atoms: _439  and  _440
REMARK  180  A    between atoms: _439  and  _442
REMARK  181  A    between atoms: _442  and  _443
REMARK  182  A    between atoms: _446  and  _448
REMARK  183  A    between atoms: _448  and  _449
REMARK  184  A    between atoms: _448  and  _451
REMARK  185  A    between atoms: _451  and  _452
REMARK  186  A    between atoms: _455  and  _457
REMARK  187  A    between atoms: _457  and  _458
REMARK  188  A    between atoms: _457  and  _460
REMARK  189  A    between atoms: _460  and  _461
REMARK  190  A    between atoms: _461  and  _462
REMARK  191  A    between atoms: _465  and  _467
REMARK  192  A    between atoms: _467  and  _468
REMARK  193  A    between atoms: _467  and  _470
REMARK  194  A    between atoms: _470  and  _471
REMARK  195  A    between atoms: _471  and  _472
REMARK  196  A    between atoms: _475  and  _477
REMARK  197  A    between atoms: _477  and  _478
REMARK  198  A    between atoms: _477  and  _480
REMARK  199  A    between atoms: _480  and  _481
REMARK  200  A    between atoms: _484  and  _486
REMARK  201  A    between atoms: _486  and  _487
REMARK  202  A    between atoms: _486  and  _489
REMARK  203  A    between atoms: _492  and  _494
REMARK  204  A    between atoms: _494  and  _495
REMARK  205  A    between atoms: _494  and  _497
REMARK  206  A    between atoms: _497  and  _498
REMARK  207  A    between atoms: _498  and  _499
REMARK  208  A    between atoms: _499  and  _500
REMARK  209  A    between atoms: _500  and  _501
REMARK  210  A    between atoms: _505  and  _507
REMARK  211  A    between atoms: _507  and  _508
REMARK  212  A    between atoms: _507  and  _510
REMARK  213  A    between atoms: _510  and  _511
REMARK  214  A    between atoms: _511  and  _512
REMARK  215  A    between atoms: _515  and  _517
REMARK  216  A    between atoms: _517  and  _518
REMARK  217  A    between atoms: _517  and  _520
REMARK  218  A    between atoms: _520  and  _521
REMARK  219  A    between atoms: _523  and  _525
REMARK  220  A    between atoms: _525  and  _526
REMARK  221  A    between atoms: _525  and  _528
REMARK  222  A    between atoms: _528  and  _529
REMARK  223  A    between atoms: _529  and  _530
REMARK  224  A    between atoms: _530  and  _531
REMARK  225  A    between atoms: _540  and  _542
REMARK  226  A    between atoms: _542  and  _543
REMARK  227  A    between atoms: _542  and  _545
REMARK  228  A    between atoms: _545  and  _546
REMARK  229  A    between atoms: _549  and  _551
REMARK  230  A    between atoms: _551  and  _552
REMARK  231  A    between atoms: _551  and  _554
REMARK  232  A    between atoms: _554  and  _555
REMARK  233  A    between atoms: _560  and  _562
REMARK  234  A    between atoms: _562  and  _563
REMARK  235  A    between atoms: _562  and  _565
REMARK  236  A    between atoms: _565  and  _566
REMARK  237  A    between atoms: _566  and  _567
REMARK  238  A    between atoms: _567  and  _568
REMARK  239  A    between atoms: _577  and  _579
REMARK  240  A    between atoms: _579  and  _580
REMARK  241  A    between atoms: _579  and  _582
REMARK  242  A    between atoms: _582  and  _583
REMARK  243  A    between atoms: _586  and  _588
REMARK  244  A    between atoms: _588  and  _589
REMARK  245  A    between atoms: _588  and  _591
REMARK  246  A    between atoms: _591  and  _592
REMARK  247  A    between atoms: _595  and  _597
REMARK  248  A    between atoms: _597  and  _598
REMARK  249  A    between atoms: _597  and  _600
REMARK  250  A    between atoms: _600  and  _601
REMARK                            x       y       z     vdW  Elec       q    Type
REMARK                         _______ _______ _______ _____ _____    ______ ____
ROOT
ATOM      1  O   HOH     1    -126.550  34.645 122.726  0.00  0.00    +0.000 OA
ENDROOT
TORSDOF 0
REMARK  Name = ../refined-set-2016/2pqb/2pqb_pocket.pdb
REMARK  250 active torsions:
REMARK  status: ('A' for Active; 'I' for Inactive)
REMARK    1  A    between atoms: _1  and  _3
REMARK    2  A    between atoms: _3  and  _4
REMARK    3  A    between atoms: _3  and  _6
REMARK    4  A    between atoms: _6  and  _7
REMARK    5  A    between atoms: _10  and  _12
REMARK    6  A    between atoms: _12  and  _13
REMARK    7  A    between atoms: _12  and  _15
REMARK    8  A    between atoms: _15  and  _16
REMARK    9  A    between atoms: _16  and  _17
REMARK   10  A    between atoms: _17  and  _18
REMARK   11  A    between atoms: _18  and  _19
REMARK   12  A    between atoms: _23  and  _25
REMARK   13  A    between atoms: _25  and  _26
REMARK   14  A    between atoms: _25  and  _28
REMARK   15  A    between atoms: _28  and  _29
REMARK   16  A    between atoms: _31  and  _33
REMARK   17  A    between atoms: _33  and  _34
REMARK   18  A    between atoms: _33  and  _36
REMARK   19  A    between atoms: _36  and  _37
REMARK   20  A    between atoms: _40  and  _42
REMARK   21  A    between atoms: _42  and  _43
REMARK   22  A    between atoms: _42  and  _45
REMARK   23  A    between atoms: _45  and  _46
REMARK   24  A    between atoms: _48  and  _50
REMARK   25  A    between atoms: _50  and  _51
REMARK   26  A    between atoms: _50  and  _53
REMARK   27  A    between atoms: _53  and  _54
REMARK   28  A    between atoms: _59  and  _61
REMARK   29  A    between atoms: _61  and  _62
REMARK   30  A    between atoms: _61  and  _64
REMARK   31  A    between atoms: _64  and  _65
REMARK   32  A    between atoms: _65  and  _66
REMARK   33  A    between atoms: _66  and  _67
REMARK   34  A    between atoms: _76  and  _78
REMARK   35  A    between atoms: _78  and  _79
REMARK   36  A    between atoms: _78  and  _81
REMARK   37  A    between atoms: _81  and  _82
REMARK   38  A    between atoms: _85  and  _87
REMARK   39  A    between atoms: _87  and  _88
REMARK   40  A    between atoms: _87  and  _90
REMARK   41  A    between atoms: _90  and  _91
REMARK   42  A    between atoms: _94  and  _96
REMARK   43  A    between atoms: _96  and  _97
REMARK   44  A    between atoms: _96  and  _99
REMARK   45  A    between atoms: _99  and  _100
REMARK   46  A    between atoms: _106  and  _108
REMARK   47  A    between atoms: _108  and  _109
REMARK   48  A    between atoms: _108  and  _111
REMARK   49  A    between atoms: _111  and  _112
REMARK   50  A    between atoms: _117  and  _119
REMARK   51  A    between atoms: _119  and  _120
REMARK   52  A    between atoms: _123  and  _125
REMARK   53  A    between atoms: _125  and  _126
REMARK   54  A    between atoms: _129  and  _131
REMARK   55  A    between atoms: _131  and  _132
REMARK   56  A    between atoms: _131  and  _134
REMARK   57  A    between atoms: _134  and  _135
REMARK   58  A    between atoms: _138  and  _140
REMARK   59  A    between atoms: _140  and  _141
REMARK   60  A    between atoms: _143  and  _145
REMARK   61  A    between atoms: _145  and  _146
REMARK   62  A    between atoms: _145  and  _148
REMARK   63  A    between atoms: _150  and  _152
REMARK   64  A    between atoms: _152  and  _153
REMARK   65  A    between atoms: _152  and  _155
REMARK   66  A    between atoms: _155  and  _156
REMARK   67  A    between atoms: _156  and  _157
REMARK   68  A    between atoms: _157  and  _158
REMARK   69  A    between atoms: _167  and  _169
REMARK   70  A    between atoms: _169  and  _170
REMARK   71  A    between atoms: _169  and  _172
REMARK   72  A    between atoms: _172  and  _173
REMARK   73  A    between atoms: _176  and  _178
REMARK   74  A    between atoms: _178  and  _179
REMARK   75  A    between atoms: _178  and  _181
REMARK   76  A    between atoms: _181  and  _182
REMARK   77  A    between atoms: _184  and  _186
REMARK   78  A    between atoms: _186  and  _187
REMARK   79  A    between atoms: _186  and  _189
REMARK   80  A    between atoms: _189  and  _190
REMARK   81  A    between atoms: _193  and  _195
REMARK   82  A    between atoms: _195  and  _196
REMARK   83  A    between atoms: _195  and  _198
REMARK   84  A    between atoms: _198  and  _199
REMARK   85  A    between atoms: _199  and  _200
REMARK   86  A    between atoms: _200  and  _201
REMARK   87  A    between atoms: _211  and  _212
REMARK   88  A    between atoms: _217  and  _219
REMARK   89  A    between atoms: _219  and  _220
REMARK   90  A    between atoms: _219  and  _222
REMARK   91  A    between atoms: _222  and  _223
REMARK   92  A    between atoms: _223  and  _224
REMARK   93  A    between atoms: _224  and  _225
REMARK   94  A    between atoms: _234  and  _236
REMARK   95  A    between atoms: _236  and  _237
REMARK   96  A    between atoms: _236  and  _239
REMARK   97  A    between atoms: _242  and  _244
REMARK   98  A    between atoms: _244  and  _245
REMARK   99  A    between atoms: _244  and  _247
REMARK  100  A    between atoms: _250  and  _252
REMARK  101  A    between atoms: _252  and  _253
REMARK  102  A    between atoms: _252  and  _255
REMARK  103  A    between atoms: _255  and  _256
REMARK  104  A    between atoms: _256  and  _257
REMARK  105  A    between atoms: _259  and  _261
REMARK  106  A    between atoms: _261  and  _262
REMARK  107  A    between atoms: _265  and  _267
REMARK  108  A    between atoms: _267  and  _268
REMARK  109  A    between atoms: _267  and  _270
REMARK  110  A    between atoms: _270  and  _271
REMARK  111  A    between atoms: _273  and  _275
REMARK  112  A    between atoms: _275  and  _276
REMARK  113  A    between atoms: _279  and  _281
REMARK  114  A    between atoms: _281  and  _282
REMARK  115  A    between atoms: _281  and  _284
REMARK  116  A    between atoms: _284  and  _285
REMARK  117  A    between atoms: _285  and  _286
REMARK  118  A    between atoms: _291  and  _293
REMARK  119  A    between atoms: _293  and  _294
REMARK  120  A    between atoms: _293  and  _296
REMARK  121  A    between atoms: _299  and  _301
REMARK  122  A    between atoms: _301  and  _302
REMARK  123  A    between atoms: _301  and  _304
REMARK  124  A    between atoms: _304  and  _305
REMARK  125  A    between atoms: _305  and  _306
REMARK  126  A    between atoms: _306  and  _307
REMARK  127  A    between atoms: _307  and  _308
REMARK  128  A    between atoms: _312  and  _314
REMARK  129  A    between atoms: _314  and  _315
REMARK  130  A    between atoms: _314  and  _317
REMARK  131  A    between atoms: _317  and  _318
REMARK  132  A    between atoms: _320  and  _322
REMARK  133  A    between atoms: _322  and  _323
REMARK  134  A    between atoms: _326  and  _328
REMARK  135  A    between atoms: _328  and  _329
REMARK  136  A    between atoms: _328  and  _331
REMARK  137  A    between atoms: _331  and  _332
REMARK  138  A    between atoms: _335  and  _337
REMARK  139  A    between atoms: _337  and  _338
REMARK  140  A    between atoms: _337  and  _340
REMARK  141  A    between atoms: _340  and  _341
REMARK  142  A    between atoms: _341  and  _342
REMARK  143  A    between atoms: _342  and  _343
REMARK  144  A    between atoms: _352  and  _354
REMARK  145  A    between atoms: _354  and  _355
REMARK  146  A    between atoms: _354  and  _357
REMARK  147  A    between atoms: _357  and  _358
REMARK  148  A    between atoms: _361  and  _363
REMARK  149  A    between atoms: _363  and  _364
REMARK  150  A    between atoms: _363  and  _366
REMARK  151  A    between atoms: _366  and  _367
REMARK  152  A    between atoms: _372  and  _374
REMARK  153  A    between atoms: _374  and  _375
REMARK  154  A    between atoms: _374  and  _377
REMARK  155  A    between atoms: _377  and  _378
REMARK  156  A    between atoms: _381  and  _383
REMARK  157  A    between atoms: _383  and  _384
REMARK  158  A    between atoms: _383  and  _386
REMARK  159  A    between atoms: _386  and  _387
REMARK  160  A    between atoms: _390  and  _392
REMARK  161  A    between atoms: _392  and  _393
REMARK  162  A    between atoms: _392  and  _395
REMARK  163  A    between atoms: _395  and  _396
REMARK  164  A    between atoms: _398  and  _400
REMARK  165  A    between atoms: _400  and  _401
REMARK  166  A    between atoms: _400  and  _403
REMARK  167  A    between atoms: _403  and  _404
REMARK  168  A    between atoms: _404  and  _405
REMARK  169  A    between atoms: _405  and  _406
REMARK  170  A    between atoms: _415  and  _417
REMARK  171  A    between atoms: _417  and  _418
REMARK  172  A    between atoms: _422  and  _423
REMARK  173  A    between atoms: _428  and  _430
REMARK  174  A    between atoms: _430  and  _431
REMARK  175  A    between atoms: _430  and  _433
REMARK  176  A    between atoms: _433  and  _434
REMARK  177  A    between atoms: _434  and  _435
REMARK  178  A    between atoms: _437  and  _439
REMARK  179  A    between atoms: _439  and  _440
REMARK  180  A    between atoms: _439  and  _442
REMARK  181  A    between atoms: _442  and  _443
REMARK  182  A    between atoms: _446  and  _448
REMARK  183  A    between atoms: _448  and  _449
REMARK  184  A    between atoms: _448  and  _451
REMARK  185  A    between atoms: _451  and  _452
REMARK  186  A    between atoms: _455  and  _457
REMARK  187  A    between atoms: _457  and  _458
REMARK  188  A    between atoms: _457  and  _460
REMARK  189  A    between atoms: _460  and  _461
REMARK  190  A    between atoms: _461  and  _462
REMARK  191  A    between atoms: _465  and  _467
REMARK  192  A    between atoms: _467  and  _468
REMARK  193  A    between atoms: _467  and  _470
REMARK  194  A    between atoms: _470  and  _471
REMARK  195  A    between atoms: _471  and  _472
REMARK  196  A    between atoms: _475  and  _477
REMARK  197  A    between atoms: _477  and  _478
REMARK  198  A    between atoms: _477  and  _480
REMARK  199  A    between atoms: _480  and  _481
REMARK  200  A    between atoms: _484  and  _486
REMARK  201  A    between atoms: _486  and  _487
REMARK  202  A    between atoms: _486  and  _489
REMARK  203  A    between atoms: _492  and  _494
REMARK  204  A    between atoms: _494  and  _495
REMARK  205  A    between atoms: _494  and  _497
REMARK  206  A    between atoms: _497  and  _498
REMARK  207  A    between atoms: _498  and  _499
REMARK  208  A    between atoms: _499  and  _500
REMARK  209  A    between atoms: _500  and  _501
REMARK  210  A    between atoms: _505  and  _507
REMARK  211  A    between atoms: _507  and  _508
REMARK  212  A    between atoms: _507  and  _510
REMARK  213  A    between atoms: _510  and  _511
REMARK  214  A    between atoms: _511  and  _512
REMARK  215  A    between atoms: _515  and  _517
REMARK  216  A    between atoms: _517  and  _518
REMARK  217  A    between atoms: _517  and  _520
REMARK  218  A    between atoms: _520  and  _521
REMARK  219  A    between atoms: _523  and  _525
REMARK  220  A    between atoms: _525  and  _526
REMARK  221  A    between atoms: _525  and  _528
REMARK  222  A    between atoms: _528  and  _529
REMARK  223  A    between atoms: _529  and  _530
REMARK  224  A    between atoms: _530  and  _531
REMARK  225  A    between atoms: _540  and  _542
REMARK  226  A    between atoms: _542  and  _543
REMARK  227  A    between atoms: _542  and  _545
REMARK  228  A    between atoms: _545  and  _546
REMARK  229  A    between atoms: _549  and  _551
REMARK  230  A    between atoms: _551  and  _552
REMARK  231  A    between atoms: _551  and  _554
REMARK  232  A    between atoms: _554  and  _555
REMARK  233  A    between atoms: _560  and  _562
REMARK  234  A    between atoms: _562  and  _563
REMARK  235  A    between atoms: _562  and  _565
REMARK  236  A    between atoms: _565  and  _566
REMARK  237  A    between atoms: _566  and  _567
REMARK  238  A    between atoms: _567  and  _568
REMARK  239  A    between atoms: _577  and  _579
REMARK  240  A    between atoms: _579  and  _580
REMARK  241  A    between atoms: _579  and  _582
REMARK  242  A    between atoms: _582  and  _583
REMARK  243  A    between atoms: _586  and  _588
REMARK  244  A    between atoms: _588  and  _589
REMARK  245  A    between atoms: _588  and  _591
REMARK  246  A    between atoms: _591  and  _592
REMARK  247  A    between atoms: _595  and  _597
REMARK  248  A    between atoms: _597  and  _598
REMARK  249  A    between atoms: _597  and  _600
REMARK  250  A    between atoms: _600  and  _601
REMARK                            x       y       z     vdW  Elec       q    Type
REMARK                         _______ _______ _______ _____ _____    ______ ____
ROOT
ATOM      1  O   HOH     1    -140.378  35.765 125.800  0.00  0.00    +0.000 OA
ENDROOT
TORSDOF 0
REMARK  Name = ../refined-set-2016/2pqb/2pqb_pocket.pdb
REMARK  250 active torsions:
REMARK  status: ('A' for Active; 'I' for Inactive)
REMARK    1  A    between atoms: _1  and  _3
REMARK    2  A    between atoms: _3  and  _4
REMARK    3  A    between atoms: _3  and  _6
REMARK    4  A    between atoms: _6  and  _7
REMARK    5  A    between atoms: _10  and  _12
REMARK    6  A    between atoms: _12  and  _13
REMARK    7  A    between atoms: _12  and  _15
REMARK    8  A    between atoms: _15  and  _16
REMARK    9  A    between atoms: _16  and  _17
REMARK   10  A    between atoms: _17  and  _18
REMARK   11  A    between atoms: _18  and  _19
REMARK   12  A    between atoms: _23  and  _25
REMARK   13  A    between atoms: _25  and  _26
REMARK   14  A    between atoms: _25  and  _28
REMARK   15  A    between atoms: _28  and  _29
REMARK   16  A    between atoms: _31  and  _33
REMARK   17  A    between atoms: _33  and  _34
REMARK   18  A    between atoms: _33  and  _36
REMARK   19  A    between atoms: _36  and  _37
REMARK   20  A    between atoms: _40  and  _42
REMARK   21  A    between atoms: _42  and  _43
REMARK   22  A    between atoms: _42  and  _45
REMARK   23  A    between atoms: _45  and  _46
REMARK   24  A    between atoms: _48  and  _50
REMARK   25  A    between atoms: _50  and  _51
REMARK   26  A    between atoms: _50  and  _53
REMARK   27  A    between atoms: _53  and  _54
REMARK   28  A    between atoms: _59  and  _61
REMARK   29  A    between atoms: _61  and  _62
REMARK   30  A    between atoms: _61  and  _64
REMARK   31  A    between atoms: _64  and  _65
REMARK   32  A    between atoms: _65  and  _66
REMARK   33  A    between atoms: _66  and  _67
REMARK   34  A    between atoms: _76  and  _78
REMARK   35  A    between atoms: _78  and  _79
REMARK   36  A    between atoms: _78  and  _81
REMARK   37  A    between atoms: _81  and  _82
REMARK   38  A    between atoms: _85  and  _87
REMARK   39  A    between atoms: _87  and  _88
REMARK   40  A    between atoms: _87  and  _90
REMARK   41  A    between atoms: _90  and  _91
REMARK   42  A    between atoms: _94  and  _96
REMARK   43  A    between atoms: _96  and  _97
REMARK   44  A    between atoms: _96  and  _99
REMARK   45  A    between atoms: _99  and  _100
REMARK   46  A    between atoms: _106  and  _108
REMARK   47  A    between atoms: _108  and  _109
REMARK   48  A    between atoms: _108  and  _111
REMARK   49  A    between atoms: _111  and  _112
REMARK   50  A    between atoms: _117  and  _119
REMARK   51  A    between atoms: _119  and  _120
REMARK   52  A    between atoms: _123  and  _125
REMARK   53  A    between atoms: _125  and  _126
REMARK   54  A    between atoms: _129  and  _131
REMARK   55  A    between atoms: _131  and  _132
REMARK   56  A    between atoms: _131  and  _134
REMARK   57  A    between atoms: _134  and  _135
REMARK   58  A    between atoms: _138  and  _140
REMARK   59  A    between atoms: _140  and  _141
REMARK   60  A    between atoms: _143  and  _145
REMARK   61  A    between atoms: _145  and  _146
REMARK   62  A    between atoms: _145  and  _148
REMARK   63  A    between atoms: _150  and  _152
REMARK   64  A    between atoms: _152  and  _153
REMARK   65  A    between atoms: _152  and  _155
REMARK   66  A    between atoms: _155  and  _156
REMARK   67  A    between atoms: _156  and  _157
REMARK   68  A    between atoms: _157  and  _158
REMARK   69  A    between atoms: _167  and  _169
REMARK   70  A    between atoms: _169  and  _170
REMARK   71  A    between atoms: _169  and  _172
REMARK   72  A    between atoms: _172  and  _173
REMARK   73  A    between atoms: _176  and  _178
REMARK   74  A    between atoms: _178  and  _179
REMARK   75  A    between atoms: _178  and  _181
REMARK   76  A    between atoms: _181  and  _182
REMARK   77  A    between atoms: _184  and  _186
REMARK   78  A    between atoms: _186  and  _187
REMARK   79  A    between atoms: _186  and  _189
REMARK   80  A    between atoms: _189  and  _190
REMARK   81  A    between atoms: _193  and  _195
REMARK   82  A    between atoms: _195  and  _196
REMARK   83  A    between atoms: _195  and  _198
REMARK   84  A    between atoms: _198  and  _199
REMARK   85  A    between atoms: _199  and  _200
REMARK   86  A    between atoms: _200  and  _201
REMARK   87  A    between atoms: _211  and  _212
REMARK   88  A    between atoms: _217  and  _219
REMARK   89  A    between atoms: _219  and  _220
REMARK   90  A    between atoms: _219  and  _222
REMARK   91  A    between atoms: _222  and  _223
REMARK   92  A    between atoms: _223  and  _224
REMARK   93  A    between atoms: _224  and  _225
REMARK   94  A    between atoms: _234  and  _236
REMARK   95  A    between atoms: _236  and  _237
REMARK   96  A    between atoms: _236  and  _239
REMARK   97  A    between atoms: _242  and  _244
REMARK   98  A    between atoms: _244  and  _245
REMARK   99  A    between atoms: _244  and  _247
REMARK  100  A    between atoms: _250  and  _252
REMARK  101  A    between atoms: _252  and  _253
REMARK  102  A    between atoms: _252  and  _255
REMARK  103  A    between atoms: _255  and  _256
REMARK  104  A    between atoms: _256  and  _257
REMARK  105  A    between atoms: _259  and  _261
REMARK  106  A    between atoms: _261  and  _262
REMARK  107  A    between atoms: _265  and  _267
REMARK  108  A    between atoms: _267  and  _268
REMARK  109  A    between atoms: _267  and  _270
REMARK  110  A    between atoms: _270  and  _271
REMARK  111  A    between atoms: _273  and  _275
REMARK  112  A    between atoms: _275  and  _276
REMARK  113  A    between atoms: _279  and  _281
REMARK  114  A    between atoms: _281  and  _282
REMARK  115  A    between atoms: _281  and  _284
REMARK  116  A    between atoms: _284  and  _285
REMARK  117  A    between atoms: _285  and  _286
REMARK  118  A    between atoms: _291  and  _293
REMARK  119  A    between atoms: _293  and  _294
REMARK  120  A    between atoms: _293  and  _296
REMARK  121  A    between atoms: _299  and  _301
REMARK  122  A    between atoms: _301  and  _302
REMARK  123  A    between atoms: _301  and  _304
REMARK  124  A    between atoms: _304  and  _305
REMARK  125  A    between atoms: _305  and  _306
REMARK  126  A    between atoms: _306  and  _307
REMARK  127  A    between atoms: _307  and  _308
REMARK  128  A    between atoms: _312  and  _314
REMARK  129  A    between atoms: _314  and  _315
REMARK  130  A    between atoms: _314  and  _317
REMARK  131  A    between atoms: _317  and  _318
REMARK  132  A    between atoms: _320  and  _322
REMARK  133  A    between atoms: _322  and  _323
REMARK  134  A    between atoms: _326  and  _328
REMARK  135  A    between atoms: _328  and  _329
REMARK  136  A    between atoms: _328  and  _331
REMARK  137  A    between atoms: _331  and  _332
REMARK  138  A    between atoms: _335  and  _337
REMARK  139  A    between atoms: _337  and  _338
REMARK  140  A    between atoms: _337  and  _340
REMARK  141  A    between atoms: _340  and  _341
REMARK  142  A    between atoms: _341  and  _342
REMARK  143  A    between atoms: _342  and  _343
REMARK  144  A    between atoms: _352  and  _354
REMARK  145  A    between atoms: _354  and  _355
REMARK  146  A    between atoms: _354  and  _357
REMARK  147  A    between atoms: _357  and  _358
REMARK  148  A    between atoms: _361  and  _363
REMARK  149  A    between atoms: _363  and  _364
REMARK  150  A    between atoms: _363  and  _366
REMARK  151  A    between atoms: _366  and  _367
REMARK  152  A    between atoms: _372  and  _374
REMARK  153  A    between atoms: _374  and  _375
REMARK  154  A    between atoms: _374  and  _377
REMARK  155  A    between atoms: _377  and  _378
REMARK  156  A    between atoms: _381  and  _383
REMARK  157  A    between atoms: _383  and  _384
REMARK  158  A    between atoms: _383  and  _386
REMARK  159  A    between atoms: _386  and  _387
REMARK  160  A    between atoms: _390  and  _392
REMARK  161  A    between atoms: _392  and  _393
REMARK  162  A    between atoms: _392  and  _395
REMARK  163  A    between atoms: _395  and  _396
REMARK  164  A    between atoms: _398  and  _400
REMARK  165  A    between atoms: _400  and  _401
REMARK  166  A    between atoms: _400  and  _403
REMARK  167  A    between atoms: _403  and  _404
REMARK  168  A    between atoms: _404  and  _405
REMARK  169  A    between atoms: _405  and  _406
REMARK  170  A    between atoms: _415  and  _417
REMARK  171  A    between atoms: _417  and  _418
REMARK  172  A    between atoms: _422  and  _423
REMARK  173  A    between atoms: _428  and  _430
REMARK  174  A    between atoms: _430  and  _431
REMARK  175  A    between atoms: _430  and  _433
REMARK  176  A    between atoms: _433  and  _434
REMARK  177  A    between atoms: _434  and  _435
REMARK  178  A    between atoms: _437  and  _439
REMARK  179  A    between atoms: _439  and  _440
REMARK  180  A    between atoms: _439  and  _442
REMARK  181  A    between atoms: _442  and  _443
REMARK  182  A    between atoms: _446  and  _448
REMARK  183  A    between atoms: _448  and  _449
REMARK  184  A    between atoms: _448  and  _451
REMARK  185  A    between atoms: _451  and  _452
REMARK  186  A    between atoms: _455  and  _457
REMARK  187  A    between atoms: _457  and  _458
REMARK  188  A    between atoms: _457  and  _460
REMARK  189  A    between atoms: _460  and  _461
REMARK  190  A    between atoms: _461  and  _462
REMARK  191  A    between atoms: _465  and  _467
REMARK  192  A    between atoms: _467  and  _468
REMARK  193  A    between atoms: _467  and  _470
REMARK  194  A    between atoms: _470  and  _471
REMARK  195  A    between atoms: _471  and  _472
REMARK  196  A    between atoms: _475  and  _477
REMARK  197  A    between atoms: _477  and  _478
REMARK  198  A    between atoms: _477  and  _480
REMARK  199  A    between atoms: _480  and  _481
REMARK  200  A    between atoms: _484  and  _486
REMARK  201  A    between atoms: _486  and  _487
REMARK  202  A    between atoms: _486  and  _489
REMARK  203  A    between atoms: _492  and  _494
REMARK  204  A    between atoms: _494  and  _495
REMARK  205  A    between atoms: _494  and  _497
REMARK  206  A    between atoms: _497  and  _498
REMARK  207  A    between atoms: _498  and  _499
REMARK  208  A    between atoms: _499  and  _500
REMARK  209  A    between atoms: _500  and  _501
REMARK  210  A    between atoms: _505  and  _507
REMARK  211  A    between atoms: _507  and  _508
REMARK  212  A    between atoms: _507  and  _510
REMARK  213  A    between atoms: _510  and  _511
REMARK  214  A    between atoms: _511  and  _512
REMARK  215  A    between atoms: _515  and  _517
REMARK  216  A    between atoms: _517  and  _518
REMARK  217  A    between atoms: _517  and  _520
REMARK  218  A    between atoms: _520  and  _521
REMARK  219  A    between atoms: _523  and  _525
REMARK  220  A    between atoms: _525  and  _526
REMARK  221  A    between atoms: _525  and  _528
REMARK  222  A    between atoms: _528  and  _529
REMARK  223  A    between atoms: _529  and  _530
REMARK  224  A    between atoms: _530  and  _531
REMARK  225  A    between atoms: _540  and  _542
REMARK  226  A    between atoms: _542  and  _543
REMARK  227  A    between atoms: _542  and  _545
REMARK  228  A    between atoms: _545  and  _546
REMARK  229  A    between atoms: _549  and  _551
REMARK  230  A    between atoms: _551  and  _552
REMARK  231  A    between atoms: _551  and  _554
REMARK  232  A    between atoms: _554  and  _555
REMARK  233  A    between atoms: _560  and  _562
REMARK  234  A    between atoms: _562  and  _563
REMARK  235  A    between atoms: _562  and  _565
REMARK  236  A    between atoms: _565  and  _566
REMARK  237  A    between atoms: _566  and  _567
REMARK  238  A    between atoms: _567  and  _568
REMARK  239  A    between atoms: _577  and  _579
REMARK  240  A    between atoms: _579  and  _580
REMARK  241  A    between atoms: _579  and  _582
REMARK  242  A    between atoms: _582  and  _583
REMARK  243  A    between atoms: _586  and  _588
REMARK  244  A    between atoms: _588  and  _589
REMARK  245  A    between atoms: _588  and  _591
REMARK  246  A    between atoms: _591  and  _592
REMARK  247  A    between atoms: _595  and  _597
REMARK  248  A    between atoms: _597  and  _598
REMARK  249  A    between atoms: _597  and  _600
REMARK  250  A    between atoms: _600  and  _601
REMARK                            x       y       z     vdW  Elec       q    Type
REMARK                         _______ _______ _______ _____ _____    ______ ____
ROOT
ATOM      1  O   HOH     1    -129.039  32.542 120.165  0.00  0.00    +0.000 OA
ENDROOT
TORSDOF 0
REMARK  Name = ../refined-set-2016/2pqb/2pqb_pocket.pdb
REMARK  250 active torsions:
REMARK  status: ('A' for Active; 'I' for Inactive)
REMARK    1  A    between atoms: _1  and  _3
REMARK    2  A    between atoms: _3  and  _4
REMARK    3  A    between atoms: _3  and  _6
REMARK    4  A    between atoms: _6  and  _7
REMARK    5  A    between atoms: _10  and  _12
REMARK    6  A    between atoms: _12  and  _13
REMARK    7  A    between atoms: _12  and  _15
REMARK    8  A    between atoms: _15  and  _16
REMARK    9  A    between atoms: _16  and  _17
REMARK   10  A    between atoms: _17  and  _18
REMARK   11  A    between atoms: _18  and  _19
REMARK   12  A    between atoms: _23  and  _25
REMARK   13  A    between atoms: _25  and  _26
REMARK   14  A    between atoms: _25  and  _28
REMARK   15  A    between atoms: _28  and  _29
REMARK   16  A    between atoms: _31  and  _33
REMARK   17  A    between atoms: _33  and  _34
REMARK   18  A    between atoms: _33  and  _36
REMARK   19  A    between atoms: _36  and  _37
REMARK   20  A    between atoms: _40  and  _42
REMARK   21  A    between atoms: _42  and  _43
REMARK   22  A    between atoms: _42  and  _45
REMARK   23  A    between atoms: _45  and  _46
REMARK   24  A    between atoms: _48  and  _50
REMARK   25  A    between atoms: _50  and  _51
REMARK   26  A    between atoms: _50  and  _53
REMARK   27  A    between atoms: _53  and  _54
REMARK   28  A    between atoms: _59  and  _61
REMARK   29  A    between atoms: _61  and  _62
REMARK   30  A    between atoms: _61  and  _64
REMARK   31  A    between atoms: _64  and  _65
REMARK   32  A    between atoms: _65  and  _66
REMARK   33  A    between atoms: _66  and  _67
REMARK   34  A    between atoms: _76  and  _78
REMARK   35  A    between atoms: _78  and  _79
REMARK   36  A    between atoms: _78  and  _81
REMARK   37  A    between atoms: _81  and  _82
REMARK   38  A    between atoms: _85  and  _87
REMARK   39  A    between atoms: _87  and  _88
REMARK   40  A    between atoms: _87  and  _90
REMARK   41  A    between atoms: _90  and  _91
REMARK   42  A    between atoms: _94  and  _96
REMARK   43  A    between atoms: _96  and  _97
REMARK   44  A    between atoms: _96  and  _99
REMARK   45  A    between atoms: _99  and  _100
REMARK   46  A    between atoms: _106  and  _108
REMARK   47  A    between atoms: _108  and  _109
REMARK   48  A    between atoms: _108  and  _111
REMARK   49  A    between atoms: _111  and  _112
REMARK   50  A    between atoms: _117  and  _119
REMARK   51  A    between atoms: _119  and  _120
REMARK   52  A    between atoms: _123  and  _125
REMARK   53  A    between atoms: _125  and  _126
REMARK   54  A    between atoms: _129  and  _131
REMARK   55  A    between atoms: _131  and  _132
REMARK   56  A    between atoms: _131  and  _134
REMARK   57  A    between atoms: _134  and  _135
REMARK   58  A    between atoms: _138  and  _140
REMARK   59  A    between atoms: _140  and  _141
REMARK   60  A    between atoms: _143  and  _145
REMARK   61  A    between atoms: _145  and  _146
REMARK   62  A    between atoms: _145  and  _148
REMARK   63  A    between atoms: _150  and  _152
REMARK   64  A    between atoms: _152  and  _153
REMARK   65  A    between atoms: _152  and  _155
REMARK   66  A    between atoms: _155  and  _156
REMARK   67  A    between atoms: _156  and  _157
REMARK   68  A    between atoms: _157  and  _158
REMARK   69  A    between atoms: _167  and  _169
REMARK   70  A    between atoms: _169  and  _170
REMARK   71  A    between atoms: _169  and  _172
REMARK   72  A    between atoms: _172  and  _173
REMARK   73  A    between atoms: _176  and  _178
REMARK   74  A    between atoms: _178  and  _179
REMARK   75  A    between atoms: _178  and  _181
REMARK   76  A    between atoms: _181  and  _182
REMARK   77  A    between atoms: _184  and  _186
REMARK   78  A    between atoms: _186  and  _187
REMARK   79  A    between atoms: _186  and  _189
REMARK   80  A    between atoms: _189  and  _190
REMARK   81  A    between atoms: _193  and  _195
REMARK   82  A    between atoms: _195  and  _196
REMARK   83  A    between atoms: _195  and  _198
REMARK   84  A    between atoms: _198  and  _199
REMARK   85  A    between atoms: _199  and  _200
REMARK   86  A    between atoms: _200  and  _201
REMARK   87  A    between atoms: _211  and  _212
REMARK   88  A    between atoms: _217  and  _219
REMARK   89  A    between atoms: _219  and  _220
REMARK   90  A    between atoms: _219  and  _222
REMARK   91  A    between atoms: _222  and  _223
REMARK   92  A    between atoms: _223  and  _224
REMARK   93  A    between atoms: _224  and  _225
REMARK   94  A    between atoms: _234  and  _236
REMARK   95  A    between atoms: _236  and  _237
REMARK   96  A    between atoms: _236  and  _239
REMARK   97  A    between atoms: _242  and  _244
REMARK   98  A    between atoms: _244  and  _245
REMARK   99  A    between atoms: _244  and  _247
REMARK  100  A    between atoms: _250  and  _252
REMARK  101  A    between atoms: _252  and  _253
REMARK  102  A    between atoms: _252  and  _255
REMARK  103  A    between atoms: _255  and  _256
REMARK  104  A    between atoms: _256  and  _257
REMARK  105  A    between atoms: _259  and  _261
REMARK  106  A    between atoms: _261  and  _262
REMARK  107  A    between atoms: _265  and  _267
REMARK  108  A    between atoms: _267  and  _268
REMARK  109  A    between atoms: _267  and  _270
REMARK  110  A    between atoms: _270  and  _271
REMARK  111  A    between atoms: _273  and  _275
REMARK  112  A    between atoms: _275  and  _276
REMARK  113  A    between atoms: _279  and  _281
REMARK  114  A    between atoms: _281  and  _282
REMARK  115  A    between atoms: _281  and  _284
REMARK  116  A    between atoms: _284  and  _285
REMARK  117  A    between atoms: _285  and  _286
REMARK  118  A    between atoms: _291  and  _293
REMARK  119  A    between atoms: _293  and  _294
REMARK  120  A    between atoms: _293  and  _296
REMARK  121  A    between atoms: _299  and  _301
REMARK  122  A    between atoms: _301  and  _302
REMARK  123  A    between atoms: _301  and  _304
REMARK  124  A    between atoms: _304  and  _305
REMARK  125  A    between atoms: _305  and  _306
REMARK  126  A    between atoms: _306  and  _307
REMARK  127  A    between atoms: _307  and  _308
REMARK  128  A    between atoms: _312  and  _314
REMARK  129  A    between atoms: _314  and  _315
REMARK  130  A    between atoms: _314  and  _317
REMARK  131  A    between atoms: _317  and  _318
REMARK  132  A    between atoms: _320  and  _322
REMARK  133  A    between atoms: _322  and  _323
REMARK  134  A    between atoms: _326  and  _328
REMARK  135  A    between atoms: _328  and  _329
REMARK  136  A    between atoms: _328  and  _331
REMARK  137  A    between atoms: _331  and  _332
REMARK  138  A    between atoms: _335  and  _337
REMARK  139  A    between atoms: _337  and  _338
REMARK  140  A    between atoms: _337  and  _340
REMARK  141  A    between atoms: _340  and  _341
REMARK  142  A    between atoms: _341  and  _342
REMARK  143  A    between atoms: _342  and  _343
REMARK  144  A    between atoms: _352  and  _354
REMARK  145  A    between atoms: _354  and  _355
REMARK  146  A    between atoms: _354  and  _357
REMARK  147  A    between atoms: _357  and  _358
REMARK  148  A    between atoms: _361  and  _363
REMARK  149  A    between atoms: _363  and  _364
REMARK  150  A    between atoms: _363  and  _366
REMARK  151  A    between atoms: _366  and  _367
REMARK  152  A    between atoms: _372  and  _374
REMARK  153  A    between atoms: _374  and  _375
REMARK  154  A    between atoms: _374  and  _377
REMARK  155  A    between atoms: _377  and  _378
REMARK  156  A    between atoms: _381  and  _383
REMARK  157  A    between atoms: _383  and  _384
REMARK  158  A    between atoms: _383  and  _386
REMARK  159  A    between atoms: _386  and  _387
REMARK  160  A    between atoms: _390  and  _392
REMARK  161  A    between atoms: _392  and  _393
REMARK  162  A    between atoms: _392  and  _395
REMARK  163  A    between atoms: _395  and  _396
REMARK  164  A    between atoms: _398  and  _400
REMARK  165  A    between atoms: _400  and  _401
REMARK  166  A    between atoms: _400  and  _403
REMARK  167  A    between atoms: _403  and  _404
REMARK  168  A    between atoms: _404  and  _405
REMARK  169  A    between atoms: _405  and  _406
REMARK  170  A    between atoms: _415  and  _417
REMARK  171  A    between atoms: _417  and  _418
REMARK  172  A    between atoms: _422  and  _423
REMARK  173  A    between atoms: _428  and  _430
REMARK  174  A    between atoms: _430  and  _431
REMARK  175  A    between atoms: _430  and  _433
REMARK  176  A    between atoms: _433  and  _434
REMARK  177  A    between atoms: _434  and  _435
REMARK  178  A    between atoms: _437  and  _439
REMARK  179  A    between atoms: _439  and  _440
REMARK  180  A    between atoms: _439  and  _442
REMARK  181  A    between atoms: _442  and  _443
REMARK  182  A    between atoms: _446  and  _448
REMARK  183  A    between atoms: _448  and  _449
REMARK  184  A    between atoms: _448  and  _451
REMARK  185  A    between atoms: _451  and  _452
REMARK  186  A    between atoms: _455  and  _457
REMARK  187  A    between atoms: _457  and  _458
REMARK  188  A    between atoms: _457  and  _460
REMARK  189  A    between atoms: _460  and  _461
REMARK  190  A    between atoms: _461  and  _462
REMARK  191  A    between atoms: _465  and  _467
REMARK  192  A    between atoms: _467  and  _468
REMARK  193  A    between atoms: _467  and  _470
REMARK  194  A    between atoms: _470  and  _471
REMARK  195  A    between atoms: _471  and  _472
REMARK  196  A    between atoms: _475  and  _477
REMARK  197  A    between atoms: _477  and  _478
REMARK  198  A    between atoms: _477  and  _480
REMARK  199  A    between atoms: _480  and  _481
REMARK  200  A    between atoms: _484  and  _486
REMARK  201  A    between atoms: _486  and  _487
REMARK  202  A    between atoms: _486  and  _489
REMARK  203  A    between atoms: _492  and  _494
REMARK  204  A    between atoms: _494  and  _495
REMARK  205  A    between atoms: _494  and  _497
REMARK  206  A    between atoms: _497  and  _498
REMARK  207  A    between atoms: _498  and  _499
REMARK  208  A    between atoms: _499  and  _500
REMARK  209  A    between atoms: _500  and  _501
REMARK  210  A    between atoms: _505  and  _507
REMARK  211  A    between atoms: _507  and  _508
REMARK  212  A    between atoms: _507  and  _510
REMARK  213  A    between atoms: _510  and  _511
REMARK  214  A    between atoms: _511  and  _512
REMARK  215  A    between atoms: _515  and  _517
REMARK  216  A    between atoms: _517  and  _518
REMARK  217  A    between atoms: _517  and  _520
REMARK  218  A    between atoms: _520  and  _521
REMARK  219  A    between atoms: _523  and  _525
REMARK  220  A    between atoms: _525  and  _526
REMARK  221  A    between atoms: _525  and  _528
REMARK  222  A    between atoms: _528  and  _529
REMARK  223  A    between atoms: _529  and  _530
REMARK  224  A    between atoms: _530  and  _531
REMARK  225  A    between atoms: _540  and  _542
REMARK  226  A    between atoms: _542  and  _543
REMARK  227  A    between atoms: _542  and  _545
REMARK  228  A    between atoms: _545  and  _546
REMARK  229  A    between atoms: _549  and  _551
REMARK  230  A    between atoms: _551  and  _552
REMARK  231  A    between atoms: _551  and  _554
REMARK  232  A    between atoms: _554  and  _555
REMARK  233  A    between atoms: _560  and  _562
REMARK  234  A    between atoms: _562  and  _563
REMARK  235  A    between atoms: _562  and  _565
REMARK  236  A    between atoms: _565  and  _566
REMARK  237  A    between atoms: _566  and  _567
REMARK  238  A    between atoms: _567  and  _568
REMARK  239  A    between atoms: _577  and  _579
REMARK  240  A    between atoms: _579  and  _580
REMARK  241  A    between atoms: _579  and  _582
REMARK  242  A    between atoms: _582  and  _583
REMARK  243  A    between atoms: _586  and  _588
REMARK  244  A    between atoms: _588  and  _589
REMARK  245  A    between atoms: _588  and  _591
REMARK  246  A    between atoms: _591  and  _592
REMARK  247  A    between atoms: _595  and  _597
REMARK  248  A    between atoms: _597  and  _598
REMARK  249  A    between atoms: _597  and  _600
REMARK  250  A    between atoms: _600  and  _601
REMARK                            x       y       z     vdW  Elec       q    Type
REMARK                         _______ _______ _______ _____ _____    ______ ____
ROOT
ATOM      1  O   HOH     1    -128.494  34.981 119.192  0.00  0.00    +0.000 OA
ENDROOT
TORSDOF 0
REMARK  Name = ../refined-set-2016/2pqb/2pqb_pocket.pdb
REMARK  250 active torsions:
REMARK  status: ('A' for Active; 'I' for Inactive)
REMARK    1  A    between atoms: _1  and  _3
REMARK    2  A    between atoms: _3  and  _4
REMARK    3  A    between atoms: _3  and  _6
REMARK    4  A    between atoms: _6  and  _7
REMARK    5  A    between atoms: _10  and  _12
REMARK    6  A    between atoms: _12  and  _13
REMARK    7  A    between atoms: _12  and  _15
REMARK    8  A    between atoms: _15  and  _16
REMARK    9  A    between atoms: _16  and  _17
REMARK   10  A    between atoms: _17  and  _18
REMARK   11  A    between atoms: _18  and  _19
REMARK   12  A    between atoms: _23  and  _25
REMARK   13  A    between atoms: _25  and  _26
REMARK   14  A    between atoms: _25  and  _28
REMARK   15  A    between atoms: _28  and  _29
REMARK   16  A    between atoms: _31  and  _33
REMARK   17  A    between atoms: _33  and  _34
REMARK   18  A    between atoms: _33  and  _36
REMARK   19  A    between atoms: _36  and  _37
REMARK   20  A    between atoms: _40  and  _42
REMARK   21  A    between atoms: _42  and  _43
REMARK   22  A    between atoms: _42  and  _45
REMARK   23  A    between atoms: _45  and  _46
REMARK   24  A    between atoms: _48  and  _50
REMARK   25  A    between atoms: _50  and  _51
REMARK   26  A    between atoms: _50  and  _53
REMARK   27  A    between atoms: _53  and  _54
REMARK   28  A    between atoms: _59  and  _61
REMARK   29  A    between atoms: _61  and  _62
REMARK   30  A    between atoms: _61  and  _64
REMARK   31  A    between atoms: _64  and  _65
REMARK   32  A    between atoms: _65  and  _66
REMARK   33  A    between atoms: _66  and  _67
REMARK   34  A    between atoms: _76  and  _78
REMARK   35  A    between atoms: _78  and  _79
REMARK   36  A    between atoms: _78  and  _81
REMARK   37  A    between atoms: _81  and  _82
REMARK   38  A    between atoms: _85  and  _87
REMARK   39  A    between atoms: _87  and  _88
REMARK   40  A    between atoms: _87  and  _90
REMARK   41  A    between atoms: _90  and  _91
REMARK   42  A    between atoms: _94  and  _96
REMARK   43  A    between atoms: _96  and  _97
REMARK   44  A    between atoms: _96  and  _99
REMARK   45  A    between atoms: _99  and  _100
REMARK   46  A    between atoms: _106  and  _108
REMARK   47  A    between atoms: _108  and  _109
REMARK   48  A    between atoms: _108  and  _111
REMARK   49  A    between atoms: _111  and  _112
REMARK   50  A    between atoms: _117  and  _119
REMARK   51  A    between atoms: _119  and  _120
REMARK   52  A    between atoms: _123  and  _125
REMARK   53  A    between atoms: _125  and  _126
REMARK   54  A    between atoms: _129  and  _131
REMARK   55  A    between atoms: _131  and  _132
REMARK   56  A    between atoms: _131  and  _134
REMARK   57  A    between atoms: _134  and  _135
REMARK   58  A    between atoms: _138  and  _140
REMARK   59  A    between atoms: _140  and  _141
REMARK   60  A    between atoms: _143  and  _145
REMARK   61  A    between atoms: _145  and  _146
REMARK   62  A    between atoms: _145  and  _148
REMARK   63  A    between atoms: _150  and  _152
REMARK   64  A    between atoms: _152  and  _153
REMARK   65  A    between atoms: _152  and  _155
REMARK   66  A    between atoms: _155  and  _156
REMARK   67  A    between atoms: _156  and  _157
REMARK   68  A    between atoms: _157  and  _158
REMARK   69  A    between atoms: _167  and  _169
REMARK   70  A    between atoms: _169  and  _170
REMARK   71  A    between atoms: _169  and  _172
REMARK   72  A    between atoms: _172  and  _173
REMARK   73  A    between atoms: _176  and  _178
REMARK   74  A    between atoms: _178  and  _179
REMARK   75  A    between atoms: _178  and  _181
REMARK   76  A    between atoms: _181  and  _182
REMARK   77  A    between atoms: _184  and  _186
REMARK   78  A    between atoms: _186  and  _187
REMARK   79  A    between atoms: _186  and  _189
REMARK   80  A    between atoms: _189  and  _190
REMARK   81  A    between atoms: _193  and  _195
REMARK   82  A    between atoms: _195  and  _196
REMARK   83  A    between atoms: _195  and  _198
REMARK   84  A    between atoms: _198  and  _199
REMARK   85  A    between atoms: _199  and  _200
REMARK   86  A    between atoms: _200  and  _201
REMARK   87  A    between atoms: _211  and  _212
REMARK   88  A    between atoms: _217  and  _219
REMARK   89  A    between atoms: _219  and  _220
REMARK   90  A    between atoms: _219  and  _222
REMARK   91  A    between atoms: _222  and  _223
REMARK   92  A    between atoms: _223  and  _224
REMARK   93  A    between atoms: _224  and  _225
REMARK   94  A    between atoms: _234  and  _236
REMARK   95  A    between atoms: _236  and  _237
REMARK   96  A    between atoms: _236  and  _239
REMARK   97  A    between atoms: _242  and  _244
REMARK   98  A    between atoms: _244  and  _245
REMARK   99  A    between atoms: _244  and  _247
REMARK  100  A    between atoms: _250  and  _252
REMARK  101  A    between atoms: _252  and  _253
REMARK  102  A    between atoms: _252  and  _255
REMARK  103  A    between atoms: _255  and  _256
REMARK  104  A    between atoms: _256  and  _257
REMARK  105  A    between atoms: _259  and  _261
REMARK  106  A    between atoms: _261  and  _262
REMARK  107  A    between atoms: _265  and  _267
REMARK  108  A    between atoms: _267  and  _268
REMARK  109  A    between atoms: _267  and  _270
REMARK  110  A    between atoms: _270  and  _271
REMARK  111  A    between atoms: _273  and  _275
REMARK  112  A    between atoms: _275  and  _276
REMARK  113  A    between atoms: _279  and  _281
REMARK  114  A    between atoms: _281  and  _282
REMARK  115  A    between atoms: _281  and  _284
REMARK  116  A    between atoms: _284  and  _285
REMARK  117  A    between atoms: _285  and  _286
REMARK  118  A    between atoms: _291  and  _293
REMARK  119  A    between atoms: _293  and  _294
REMARK  120  A    between atoms: _293  and  _296
REMARK  121  A    between atoms: _299  and  _301
REMARK  122  A    between atoms: _301  and  _302
REMARK  123  A    between atoms: _301  and  _304
REMARK  124  A    between atoms: _304  and  _305
REMARK  125  A    between atoms: _305  and  _306
REMARK  126  A    between atoms: _306  and  _307
REMARK  127  A    between atoms: _307  and  _308
REMARK  128  A    between atoms: _312  and  _314
REMARK  129  A    between atoms: _314  and  _315
REMARK  130  A    between atoms: _314  and  _317
REMARK  131  A    between atoms: _317  and  _318
REMARK  132  A    between atoms: _320  and  _322
REMARK  133  A    between atoms: _322  and  _323
REMARK  134  A    between atoms: _326  and  _328
REMARK  135  A    between atoms: _328  and  _329
REMARK  136  A    between atoms: _328  and  _331
REMARK  137  A    between atoms: _331  and  _332
REMARK  138  A    between atoms: _335  and  _337
REMARK  139  A    between atoms: _337  and  _338
REMARK  140  A    between atoms: _337  and  _340
REMARK  141  A    between atoms: _340  and  _341
REMARK  142  A    between atoms: _341  and  _342
REMARK  143  A    between atoms: _342  and  _343
REMARK  144  A    between atoms: _352  and  _354
REMARK  145  A    between atoms: _354  and  _355
REMARK  146  A    between atoms: _354  and  _357
REMARK  147  A    between atoms: _357  and  _358
REMARK  148  A    between atoms: _361  and  _363
REMARK  149  A    between atoms: _363  and  _364
REMARK  150  A    between atoms: _363  and  _366
REMARK  151  A    between atoms: _366  and  _367
REMARK  152  A    between atoms: _372  and  _374
REMARK  153  A    between atoms: _374  and  _375
REMARK  154  A    between atoms: _374  and  _377
REMARK  155  A    between atoms: _377  and  _378
REMARK  156  A    between atoms: _381  and  _383
REMARK  157  A    between atoms: _383  and  _384
REMARK  158  A    between atoms: _383  and  _386
REMARK  159  A    between atoms: _386  and  _387
REMARK  160  A    between atoms: _390  and  _392
REMARK  161  A    between atoms: _392  and  _393
REMARK  162  A    between atoms: _392  and  _395
REMARK  163  A    between atoms: _395  and  _396
REMARK  164  A    between atoms: _398  and  _400
REMARK  165  A    between atoms: _400  and  _401
REMARK  166  A    between atoms: _400  and  _403
REMARK  167  A    between atoms: _403  and  _404
REMARK  168  A    between atoms: _404  and  _405
REMARK  169  A    between atoms: _405  and  _406
REMARK  170  A    between atoms: _415  and  _417
REMARK  171  A    between atoms: _417  and  _418
REMARK  172  A    between atoms: _422  and  _423
REMARK  173  A    between atoms: _428  and  _430
REMARK  174  A    between atoms: _430  and  _431
REMARK  175  A    between atoms: _430  and  _433
REMARK  176  A    between atoms: _433  and  _434
REMARK  177  A    between atoms: _434  and  _435
REMARK  178  A    between atoms: _437  and  _439
REMARK  179  A    between atoms: _439  and  _440
REMARK  180  A    between atoms: _439  and  _442
REMARK  181  A    between atoms: _442  and  _443
REMARK  182  A    between atoms: _446  and  _448
REMARK  183  A    between atoms: _448  and  _449
REMARK  184  A    between atoms: _448  and  _451
REMARK  185  A    between atoms: _451  and  _452
REMARK  186  A    between atoms: _455  and  _457
REMARK  187  A    between atoms: _457  and  _458
REMARK  188  A    between atoms: _457  and  _460
REMARK  189  A    between atoms: _460  and  _461
REMARK  190  A    between atoms: _461  and  _462
REMARK  191  A    between atoms: _465  and  _467
REMARK  192  A    between atoms: _467  and  _468
REMARK  193  A    between atoms: _467  and  _470
REMARK  194  A    between atoms: _470  and  _471
REMARK  195  A    between atoms: _471  and  _472
REMARK  196  A    between atoms: _475  and  _477
REMARK  197  A    between atoms: _477  and  _478
REMARK  198  A    between atoms: _477  and  _480
REMARK  199  A    between atoms: _480  and  _481
REMARK  200  A    between atoms: _484  and  _486
REMARK  201  A    between atoms: _486  and  _487
REMARK  202  A    between atoms: _486  and  _489
REMARK  203  A    between atoms: _492  and  _494
REMARK  204  A    between atoms: _494  and  _495
REMARK  205  A    between atoms: _494  and  _497
REMARK  206  A    between atoms: _497  and  _498
REMARK  207  A    between atoms: _498  and  _499
REMARK  208  A    between atoms: _499  and  _500
REMARK  209  A    between atoms: _500  and  _501
REMARK  210  A    between atoms: _505  and  _507
REMARK  211  A    between atoms: _507  and  _508
REMARK  212  A    between atoms: _507  and  _510
REMARK  213  A    between atoms: _510  and  _511
REMARK  214  A    between atoms: _511  and  _512
REMARK  215  A    between atoms: _515  and  _517
REMARK  216  A    between atoms: _517  and  _518
REMARK  217  A    between atoms: _517  and  _520
REMARK  218  A    between atoms: _520  and  _521
REMARK  219  A    between atoms: _523  and  _525
REMARK  220  A    between atoms: _525  and  _526
REMARK  221  A    between atoms: _525  and  _528
REMARK  222  A    between atoms: _528  and  _529
REMARK  223  A    between atoms: _529  and  _530
REMARK  224  A    between atoms: _530  and  _531
REMARK  225  A    between atoms: _540  and  _542
REMARK  226  A    between atoms: _542  and  _543
REMARK  227  A    between atoms: _542  and  _545
REMARK  228  A    between atoms: _545  and  _546
REMARK  229  A    between atoms: _549  and  _551
REMARK  230  A    between atoms: _551  and  _552
REMARK  231  A    between atoms: _551  and  _554
REMARK  232  A    between atoms: _554  and  _555
REMARK  233  A    between atoms: _560  and  _562
REMARK  234  A    between atoms: _562  and  _563
REMARK  235  A    between atoms: _562  and  _565
REMARK  236  A    between atoms: _565  and  _566
REMARK  237  A    between atoms: _566  and  _567
REMARK  238  A    between atoms: _567  and  _568
REMARK  239  A    between atoms: _577  and  _579
REMARK  240  A    between atoms: _579  and  _580
REMARK  241  A    between atoms: _579  and  _582
REMARK  242  A    between atoms: _582  and  _583
REMARK  243  A    between atoms: _586  and  _588
REMARK  244  A    between atoms: _588  and  _589
REMARK  245  A    between atoms: _588  and  _591
REMARK  246  A    between atoms: _591  and  _592
REMARK  247  A    between atoms: _595  and  _597
REMARK  248  A    between atoms: _597  and  _598
REMARK  249  A    between atoms: _597  and  _600
REMARK  250  A    between atoms: _600  and  _601
REMARK                            x       y       z     vdW  Elec       q    Type
REMARK                         _______ _______ _______ _____ _____    ______ ____
ROOT
ATOM      1  O   HOH     1    -137.935  33.904 132.982  0.00  0.00    +0.000 OA
ENDROOT
TORSDOF 0
REMARK  Name = ../refined-set-2016/2pqb/2pqb_pocket.pdb
REMARK  250 active torsions:
REMARK  status: ('A' for Active; 'I' for Inactive)
REMARK    1  A    between atoms: _1  and  _3
REMARK    2  A    between atoms: _3  and  _4
REMARK    3  A    between atoms: _3  and  _6
REMARK    4  A    between atoms: _6  and  _7
REMARK    5  A    between atoms: _10  and  _12
REMARK    6  A    between atoms: _12  and  _13
REMARK    7  A    between atoms: _12  and  _15
REMARK    8  A    between atoms: _15  and  _16
REMARK    9  A    between atoms: _16  and  _17
REMARK   10  A    between atoms: _17  and  _18
REMARK   11  A    between atoms: _18  and  _19
REMARK   12  A    between atoms: _23  and  _25
REMARK   13  A    between atoms: _25  and  _26
REMARK   14  A    between atoms: _25  and  _28
REMARK   15  A    between atoms: _28  and  _29
REMARK   16  A    between atoms: _31  and  _33
REMARK   17  A    between atoms: _33  and  _34
REMARK   18  A    between atoms: _33  and  _36
REMARK   19  A    between atoms: _36  and  _37
REMARK   20  A    between atoms: _40  and  _42
REMARK   21  A    between atoms: _42  and  _43
REMARK   22  A    between atoms: _42  and  _45
REMARK   23  A    between atoms: _45  and  _46
REMARK   24  A    between atoms: _48  and  _50
REMARK   25  A    between atoms: _50  and  _51
REMARK   26  A    between atoms: _50  and  _53
REMARK   27  A    between atoms: _53  and  _54
REMARK   28  A    between atoms: _59  and  _61
REMARK   29  A    between atoms: _61  and  _62
REMARK   30  A    between atoms: _61  and  _64
REMARK   31  A    between atoms: _64  and  _65
REMARK   32  A    between atoms: _65  and  _66
REMARK   33  A    between atoms: _66  and  _67
REMARK   34  A    between atoms: _76  and  _78
REMARK   35  A    between atoms: _78  and  _79
REMARK   36  A    between atoms: _78  and  _81
REMARK   37  A    between atoms: _81  and  _82
REMARK   38  A    between atoms: _85  and  _87
REMARK   39  A    between atoms: _87  and  _88
REMARK   40  A    between atoms: _87  and  _90
REMARK   41  A    between atoms: _90  and  _91
REMARK   42  A    between atoms: _94  and  _96
REMARK   43  A    between atoms: _96  and  _97
REMARK   44  A    between atoms: _96  and  _99
REMARK   45  A    between atoms: _99  and  _100
REMARK   46  A    between atoms: _106  and  _108
REMARK   47  A    between atoms: _108  and  _109
REMARK   48  A    between atoms: _108  and  _111
REMARK   49  A    between atoms: _111  and  _112
REMARK   50  A    between atoms: _117  and  _119
REMARK   51  A    between atoms: _119  and  _120
REMARK   52  A    between atoms: _123  and  _125
REMARK   53  A    between atoms: _125  and  _126
REMARK   54  A    between atoms: _129  and  _131
REMARK   55  A    between atoms: _131  and  _132
REMARK   56  A    between atoms: _131  and  _134
REMARK   57  A    between atoms: _134  and  _135
REMARK   58  A    between atoms: _138  and  _140
REMARK   59  A    between atoms: _140  and  _141
REMARK   60  A    between atoms: _143  and  _145
REMARK   61  A    between atoms: _145  and  _146
REMARK   62  A    between atoms: _145  and  _148
REMARK   63  A    between atoms: _150  and  _152
REMARK   64  A    between atoms: _152  and  _153
REMARK   65  A    between atoms: _152  and  _155
REMARK   66  A    between atoms: _155  and  _156
REMARK   67  A    between atoms: _156  and  _157
REMARK   68  A    between atoms: _157  and  _158
REMARK   69  A    between atoms: _167  and  _169
REMARK   70  A    between atoms: _169  and  _170
REMARK   71  A    between atoms: _169  and  _172
REMARK   72  A    between atoms: _172  and  _173
REMARK   73  A    between atoms: _176  and  _178
REMARK   74  A    between atoms: _178  and  _179
REMARK   75  A    between atoms: _178  and  _181
REMARK   76  A    between atoms: _181  and  _182
REMARK   77  A    between atoms: _184  and  _186
REMARK   78  A    between atoms: _186  and  _187
REMARK   79  A    between atoms: _186  and  _189
REMARK   80  A    between atoms: _189  and  _190
REMARK   81  A    between atoms: _193  and  _195
REMARK   82  A    between atoms: _195  and  _196
REMARK   83  A    between atoms: _195  and  _198
REMARK   84  A    between atoms: _198  and  _199
REMARK   85  A    between atoms: _199  and  _200
REMARK   86  A    between atoms: _200  and  _201
REMARK   87  A    between atoms: _211  and  _212
REMARK   88  A    between atoms: _217  and  _219
REMARK   89  A    between atoms: _219  and  _220
REMARK   90  A    between atoms: _219  and  _222
REMARK   91  A    between atoms: _222  and  _223
REMARK   92  A    between atoms: _223  and  _224
REMARK   93  A    between atoms: _224  and  _225
REMARK   94  A    between atoms: _234  and  _236
REMARK   95  A    between atoms: _236  and  _237
REMARK   96  A    between atoms: _236  and  _239
REMARK   97  A    between atoms: _242  and  _244
REMARK   98  A    between atoms: _244  and  _245
REMARK   99  A    between atoms: _244  and  _247
REMARK  100  A    between atoms: _250  and  _252
REMARK  101  A    between atoms: _252  and  _253
REMARK  102  A    between atoms: _252  and  _255
REMARK  103  A    between atoms: _255  and  _256
REMARK  104  A    between atoms: _256  and  _257
REMARK  105  A    between atoms: _259  and  _261
REMARK  106  A    between atoms: _261  and  _262
REMARK  107  A    between atoms: _265  and  _267
REMARK  108  A    between atoms: _267  and  _268
REMARK  109  A    between atoms: _267  and  _270
REMARK  110  A    between atoms: _270  and  _271
REMARK  111  A    between atoms: _273  and  _275
REMARK  112  A    between atoms: _275  and  _276
REMARK  113  A    between atoms: _279  and  _281
REMARK  114  A    between atoms: _281  and  _282
REMARK  115  A    between atoms: _281  and  _284
REMARK  116  A    between atoms: _284  and  _285
REMARK  117  A    between atoms: _285  and  _286
REMARK  118  A    between atoms: _291  and  _293
REMARK  119  A    between atoms: _293  and  _294
REMARK  120  A    between atoms: _293  and  _296
REMARK  121  A    between atoms: _299  and  _301
REMARK  122  A    between atoms: _301  and  _302
REMARK  123  A    between atoms: _301  and  _304
REMARK  124  A    between atoms: _304  and  _305
REMARK  125  A    between atoms: _305  and  _306
REMARK  126  A    between atoms: _306  and  _307
REMARK  127  A    between atoms: _307  and  _308
REMARK  128  A    between atoms: _312  and  _314
REMARK  129  A    between atoms: _314  and  _315
REMARK  130  A    between atoms: _314  and  _317
REMARK  131  A    between atoms: _317  and  _318
REMARK  132  A    between atoms: _320  and  _322
REMARK  133  A    between atoms: _322  and  _323
REMARK  134  A    between atoms: _326  and  _328
REMARK  135  A    between atoms: _328  and  _329
REMARK  136  A    between atoms: _328  and  _331
REMARK  137  A    between atoms: _331  and  _332
REMARK  138  A    between atoms: _335  and  _337
REMARK  139  A    between atoms: _337  and  _338
REMARK  140  A    between atoms: _337  and  _340
REMARK  141  A    between atoms: _340  and  _341
REMARK  142  A    between atoms: _341  and  _342
REMARK  143  A    between atoms: _342  and  _343
REMARK  144  A    between atoms: _352  and  _354
REMARK  145  A    between atoms: _354  and  _355
REMARK  146  A    between atoms: _354  and  _357
REMARK  147  A    between atoms: _357  and  _358
REMARK  148  A    between atoms: _361  and  _363
REMARK  149  A    between atoms: _363  and  _364
REMARK  150  A    between atoms: _363  and  _366
REMARK  151  A    between atoms: _366  and  _367
REMARK  152  A    between atoms: _372  and  _374
REMARK  153  A    between atoms: _374  and  _375
REMARK  154  A    between atoms: _374  and  _377
REMARK  155  A    between atoms: _377  and  _378
REMARK  156  A    between atoms: _381  and  _383
REMARK  157  A    between atoms: _383  and  _384
REMARK  158  A    between atoms: _383  and  _386
REMARK  159  A    between atoms: _386  and  _387
REMARK  160  A    between atoms: _390  and  _392
REMARK  161  A    between atoms: _392  and  _393
REMARK  162  A    between atoms: _392  and  _395
REMARK  163  A    between atoms: _395  and  _396
REMARK  164  A    between atoms: _398  and  _400
REMARK  165  A    between atoms: _400  and  _401
REMARK  166  A    between atoms: _400  and  _403
REMARK  167  A    between atoms: _403  and  _404
REMARK  168  A    between atoms: _404  and  _405
REMARK  169  A    between atoms: _405  and  _406
REMARK  170  A    between atoms: _415  and  _417
REMARK  171  A    between atoms: _417  and  _418
REMARK  172  A    between atoms: _422  and  _423
REMARK  173  A    between atoms: _428  and  _430
REMARK  174  A    between atoms: _430  and  _431
REMARK  175  A    between atoms: _430  and  _433
REMARK  176  A    between atoms: _433  and  _434
REMARK  177  A    between atoms: _434  and  _435
REMARK  178  A    between atoms: _437  and  _439
REMARK  179  A    between atoms: _439  and  _440
REMARK  180  A    between atoms: _439  and  _442
REMARK  181  A    between atoms: _442  and  _443
REMARK  182  A    between atoms: _446  and  _448
REMARK  183  A    between atoms: _448  and  _449
REMARK  184  A    between atoms: _448  and  _451
REMARK  185  A    between atoms: _451  and  _452
REMARK  186  A    between atoms: _455  and  _457
REMARK  187  A    between atoms: _457  and  _458
REMARK  188  A    between atoms: _457  and  _460
REMARK  189  A    between atoms: _460  and  _461
REMARK  190  A    between atoms: _461  and  _462
REMARK  191  A    between atoms: _465  and  _467
REMARK  192  A    between atoms: _467  and  _468
REMARK  193  A    between atoms: _467  and  _470
REMARK  194  A    between atoms: _470  and  _471
REMARK  195  A    between atoms: _471  and  _472
REMARK  196  A    between atoms: _475  and  _477
REMARK  197  A    between atoms: _477  and  _478
REMARK  198  A    between atoms: _477  and  _480
REMARK  199  A    between atoms: _480  and  _481
REMARK  200  A    between atoms: _484  and  _486
REMARK  201  A    between atoms: _486  and  _487
REMARK  202  A    between atoms: _486  and  _489
REMARK  203  A    between atoms: _492  and  _494
REMARK  204  A    between atoms: _494  and  _495
REMARK  205  A    between atoms: _494  and  _497
REMARK  206  A    between atoms: _497  and  _498
REMARK  207  A    between atoms: _498  and  _499
REMARK  208  A    between atoms: _499  and  _500
REMARK  209  A    between atoms: _500  and  _501
REMARK  210  A    between atoms: _505  and  _507
REMARK  211  A    between atoms: _507  and  _508
REMARK  212  A    between atoms: _507  and  _510
REMARK  213  A    between atoms: _510  and  _511
REMARK  214  A    between atoms: _511  and  _512
REMARK  215  A    between atoms: _515  and  _517
REMARK  216  A    between atoms: _517  and  _518
REMARK  217  A    between atoms: _517  and  _520
REMARK  218  A    between atoms: _520  and  _521
REMARK  219  A    between atoms: _523  and  _525
REMARK  220  A    between atoms: _525  and  _526
REMARK  221  A    between atoms: _525  and  _528
REMARK  222  A    between atoms: _528  and  _529
REMARK  223  A    between atoms: _529  and  _530
REMARK  224  A    between atoms: _530  and  _531
REMARK  225  A    between atoms: _540  and  _542
REMARK  226  A    between atoms: _542  and  _543
REMARK  227  A    between atoms: _542  and  _545
REMARK  228  A    between atoms: _545  and  _546
REMARK  229  A    between atoms: _549  and  _551
REMARK  230  A    between atoms: _551  and  _552
REMARK  231  A    between atoms: _551  and  _554
REMARK  232  A    between atoms: _554  and  _555
REMARK  233  A    between atoms: _560  and  _562
REMARK  234  A    between atoms: _562  and  _563
REMARK  235  A    between atoms: _562  and  _565
REMARK  236  A    between atoms: _565  and  _566
REMARK  237  A    between atoms: _566  and  _567
REMARK  238  A    between atoms: _567  and  _568
REMARK  239  A    between atoms: _577  and  _579
REMARK  240  A    between atoms: _579  and  _580
REMARK  241  A    between atoms: _579  and  _582
REMARK  242  A    between atoms: _582  and  _583
REMARK  243  A    between atoms: _586  and  _588
REMARK  244  A    between atoms: _588  and  _589
REMARK  245  A    between atoms: _588  and  _591
REMARK  246  A    between atoms: _591  and  _592
REMARK  247  A    between atoms: _595  and  _597
REMARK  248  A    between atoms: _597  and  _598
REMARK  249  A    between atoms: _597  and  _600
REMARK  250  A    between atoms: _600  and  _601
REMARK                            x       y       z     vdW  Elec       q    Type
REMARK                         _______ _______ _______ _____ _____    ______ ____
ROOT
ATOM      1  O   HOH     1    -126.482  34.344 115.152  0.00  0.00    +0.000 OA
ENDROOT
TORSDOF 0
REMARK  Name = ../refined-set-2016/2pqb/2pqb_pocket.pdb
REMARK  250 active torsions:
REMARK  status: ('A' for Active; 'I' for Inactive)
REMARK    1  A    between atoms: _1  and  _3
REMARK    2  A    between atoms: _3  and  _4
REMARK    3  A    between atoms: _3  and  _6
REMARK    4  A    between atoms: _6  and  _7
REMARK    5  A    between atoms: _10  and  _12
REMARK    6  A    between atoms: _12  and  _13
REMARK    7  A    between atoms: _12  and  _15
REMARK    8  A    between atoms: _15  and  _16
REMARK    9  A    between atoms: _16  and  _17
REMARK   10  A    between atoms: _17  and  _18
REMARK   11  A    between atoms: _18  and  _19
REMARK   12  A    between atoms: _23  and  _25
REMARK   13  A    between atoms: _25  and  _26
REMARK   14  A    between atoms: _25  and  _28
REMARK   15  A    between atoms: _28  and  _29
REMARK   16  A    between atoms: _31  and  _33
REMARK   17  A    between atoms: _33  and  _34
REMARK   18  A    between atoms: _33  and  _36
REMARK   19  A    between atoms: _36  and  _37
REMARK   20  A    between atoms: _40  and  _42
REMARK   21  A    between atoms: _42  and  _43
REMARK   22  A    between atoms: _42  and  _45
REMARK   23  A    between atoms: _45  and  _46
REMARK   24  A    between atoms: _48  and  _50
REMARK   25  A    between atoms: _50  and  _51
REMARK   26  A    between atoms: _50  and  _53
REMARK   27  A    between atoms: _53  and  _54
REMARK   28  A    between atoms: _59  and  _61
REMARK   29  A    between atoms: _61  and  _62
REMARK   30  A    between atoms: _61  and  _64
REMARK   31  A    between atoms: _64  and  _65
REMARK   32  A    between atoms: _65  and  _66
REMARK   33  A    between atoms: _66  and  _67
REMARK   34  A    between atoms: _76  and  _78
REMARK   35  A    between atoms: _78  and  _79
REMARK   36  A    between atoms: _78  and  _81
REMARK   37  A    between atoms: _81  and  _82
REMARK   38  A    between atoms: _85  and  _87
REMARK   39  A    between atoms: _87  and  _88
REMARK   40  A    between atoms: _87  and  _90
REMARK   41  A    between atoms: _90  and  _91
REMARK   42  A    between atoms: _94  and  _96
REMARK   43  A    between atoms: _96  and  _97
REMARK   44  A    between atoms: _96  and  _99
REMARK   45  A    between atoms: _99  and  _100
REMARK   46  A    between atoms: _106  and  _108
REMARK   47  A    between atoms: _108  and  _109
REMARK   48  A    between atoms: _108  and  _111
REMARK   49  A    between atoms: _111  and  _112
REMARK   50  A    between atoms: _117  and  _119
REMARK   51  A    between atoms: _119  and  _120
REMARK   52  A    between atoms: _123  and  _125
REMARK   53  A    between atoms: _125  and  _126
REMARK   54  A    between atoms: _129  and  _131
REMARK   55  A    between atoms: _131  and  _132
REMARK   56  A    between atoms: _131  and  _134
REMARK   57  A    between atoms: _134  and  _135
REMARK   58  A    between atoms: _138  and  _140
REMARK   59  A    between atoms: _140  and  _141
REMARK   60  A    between atoms: _143  and  _145
REMARK   61  A    between atoms: _145  and  _146
REMARK   62  A    between atoms: _145  and  _148
REMARK   63  A    between atoms: _150  and  _152
REMARK   64  A    between atoms: _152  and  _153
REMARK   65  A    between atoms: _152  and  _155
REMARK   66  A    between atoms: _155  and  _156
REMARK   67  A    between atoms: _156  and  _157
REMARK   68  A    between atoms: _157  and  _158
REMARK   69  A    between atoms: _167  and  _169
REMARK   70  A    between atoms: _169  and  _170
REMARK   71  A    between atoms: _169  and  _172
REMARK   72  A    between atoms: _172  and  _173
REMARK   73  A    between atoms: _176  and  _178
REMARK   74  A    between atoms: _178  and  _179
REMARK   75  A    between atoms: _178  and  _181
REMARK   76  A    between atoms: _181  and  _182
REMARK   77  A    between atoms: _184  and  _186
REMARK   78  A    between atoms: _186  and  _187
REMARK   79  A    between atoms: _186  and  _189
REMARK   80  A    between atoms: _189  and  _190
REMARK   81  A    between atoms: _193  and  _195
REMARK   82  A    between atoms: _195  and  _196
REMARK   83  A    between atoms: _195  and  _198
REMARK   84  A    between atoms: _198  and  _199
REMARK   85  A    between atoms: _199  and  _200
REMARK   86  A    between atoms: _200  and  _201
REMARK   87  A    between atoms: _211  and  _212
REMARK   88  A    between atoms: _217  and  _219
REMARK   89  A    between atoms: _219  and  _220
REMARK   90  A    between atoms: _219  and  _222
REMARK   91  A    between atoms: _222  and  _223
REMARK   92  A    between atoms: _223  and  _224
REMARK   93  A    between atoms: _224  and  _225
REMARK   94  A    between atoms: _234  and  _236
REMARK   95  A    between atoms: _236  and  _237
REMARK   96  A    between atoms: _236  and  _239
REMARK   97  A    between atoms: _242  and  _244
REMARK   98  A    between atoms: _244  and  _245
REMARK   99  A    between atoms: _244  and  _247
REMARK  100  A    between atoms: _250  and  _252
REMARK  101  A    between atoms: _252  and  _253
REMARK  102  A    between atoms: _252  and  _255
REMARK  103  A    between atoms: _255  and  _256
REMARK  104  A    between atoms: _256  and  _257
REMARK  105  A    between atoms: _259  and  _261
REMARK  106  A    between atoms: _261  and  _262
REMARK  107  A    between atoms: _265  and  _267
REMARK  108  A    between atoms: _267  and  _268
REMARK  109  A    between atoms: _267  and  _270
REMARK  110  A    between atoms: _270  and  _271
REMARK  111  A    between atoms: _273  and  _275
REMARK  112  A    between atoms: _275  and  _276
REMARK  113  A    between atoms: _279  and  _281
REMARK  114  A    between atoms: _281  and  _282
REMARK  115  A    between atoms: _281  and  _284
REMARK  116  A    between atoms: _284  and  _285
REMARK  117  A    between atoms: _285  and  _286
REMARK  118  A    between atoms: _291  and  _293
REMARK  119  A    between atoms: _293  and  _294
REMARK  120  A    between atoms: _293  and  _296
REMARK  121  A    between atoms: _299  and  _301
REMARK  122  A    between atoms: _301  and  _302
REMARK  123  A    between atoms: _301  and  _304
REMARK  124  A    between atoms: _304  and  _305
REMARK  125  A    between atoms: _305  and  _306
REMARK  126  A    between atoms: _306  and  _307
REMARK  127  A    between atoms: _307  and  _308
REMARK  128  A    between atoms: _312  and  _314
REMARK  129  A    between atoms: _314  and  _315
REMARK  130  A    between atoms: _314  and  _317
REMARK  131  A    between atoms: _317  and  _318
REMARK  132  A    between atoms: _320  and  _322
REMARK  133  A    between atoms: _322  and  _323
REMARK  134  A    between atoms: _326  and  _328
REMARK  135  A    between atoms: _328  and  _329
REMARK  136  A    between atoms: _328  and  _331
REMARK  137  A    between atoms: _331  and  _332
REMARK  138  A    between atoms: _335  and  _337
REMARK  139  A    between atoms: _337  and  _338
REMARK  140  A    between atoms: _337  and  _340
REMARK  141  A    between atoms: _340  and  _341
REMARK  142  A    between atoms: _341  and  _342
REMARK  143  A    between atoms: _342  and  _343
REMARK  144  A    between atoms: _352  and  _354
REMARK  145  A    between atoms: _354  and  _355
REMARK  146  A    between atoms: _354  and  _357
REMARK  147  A    between atoms: _357  and  _358
REMARK  148  A    between atoms: _361  and  _363
REMARK  149  A    between atoms: _363  and  _364
REMARK  150  A    between atoms: _363  and  _366
REMARK  151  A    between atoms: _366  and  _367
REMARK  152  A    between atoms: _372  and  _374
REMARK  153  A    between atoms: _374  and  _375
REMARK  154  A    between atoms: _374  and  _377
REMARK  155  A    between atoms: _377  and  _378
REMARK  156  A    between atoms: _381  and  _383
REMARK  157  A    between atoms: _383  and  _384
REMARK  158  A    between atoms: _383  and  _386
REMARK  159  A    between atoms: _386  and  _387
REMARK  160  A    between atoms: _390  and  _392
REMARK  161  A    between atoms: _392  and  _393
REMARK  162  A    between atoms: _392  and  _395
REMARK  163  A    between atoms: _395  and  _396
REMARK  164  A    between atoms: _398  and  _400
REMARK  165  A    between atoms: _400  and  _401
REMARK  166  A    between atoms: _400  and  _403
REMARK  167  A    between atoms: _403  and  _404
REMARK  168  A    between atoms: _404  and  _405
REMARK  169  A    between atoms: _405  and  _406
REMARK  170  A    between atoms: _415  and  _417
REMARK  171  A    between atoms: _417  and  _418
REMARK  172  A    between atoms: _422  and  _423
REMARK  173  A    between atoms: _428  and  _430
REMARK  174  A    between atoms: _430  and  _431
REMARK  175  A    between atoms: _430  and  _433
REMARK  176  A    between atoms: _433  and  _434
REMARK  177  A    between atoms: _434  and  _435
REMARK  178  A    between atoms: _437  and  _439
REMARK  179  A    between atoms: _439  and  _440
REMARK  180  A    between atoms: _439  and  _442
REMARK  181  A    between atoms: _442  and  _443
REMARK  182  A    between atoms: _446  and  _448
REMARK  183  A    between atoms: _448  and  _449
REMARK  184  A    between atoms: _448  and  _451
REMARK  185  A    between atoms: _451  and  _452
REMARK  186  A    between atoms: _455  and  _457
REMARK  187  A    between atoms: _457  and  _458
REMARK  188  A    between atoms: _457  and  _460
REMARK  189  A    between atoms: _460  and  _461
REMARK  190  A    between atoms: _461  and  _462
REMARK  191  A    between atoms: _465  and  _467
REMARK  192  A    between atoms: _467  and  _468
REMARK  193  A    between atoms: _467  and  _470
REMARK  194  A    between atoms: _470  and  _471
REMARK  195  A    between atoms: _471  and  _472
REMARK  196  A    between atoms: _475  and  _477
REMARK  197  A    between atoms: _477  and  _478
REMARK  198  A    between atoms: _477  and  _480
REMARK  199  A    between atoms: _480  and  _481
REMARK  200  A    between atoms: _484  and  _486
REMARK  201  A    between atoms: _486  and  _487
REMARK  202  A    between atoms: _486  and  _489
REMARK  203  A    between atoms: _492  and  _494
REMARK  204  A    between atoms: _494  and  _495
REMARK  205  A    between atoms: _494  and  _497
REMARK  206  A    between atoms: _497  and  _498
REMARK  207  A    between atoms: _498  and  _499
REMARK  208  A    between atoms: _499  and  _500
REMARK  209  A    between atoms: _500  and  _501
REMARK  210  A    between atoms: _505  and  _507
REMARK  211  A    between atoms: _507  and  _508
REMARK  212  A    between atoms: _507  and  _510
REMARK  213  A    between atoms: _510  and  _511
REMARK  214  A    between atoms: _511  and  _512
REMARK  215  A    between atoms: _515  and  _517
REMARK  216  A    between atoms: _517  and  _518
REMARK  217  A    between atoms: _517  and  _520
REMARK  218  A    between atoms: _520  and  _521
REMARK  219  A    between atoms: _523  and  _525
REMARK  220  A    between atoms: _525  and  _526
REMARK  221  A    between atoms: _525  and  _528
REMARK  222  A    between atoms: _528  and  _529
REMARK  223  A    between atoms: _529  and  _530
REMARK  224  A    between atoms: _530  and  _531
REMARK  225  A    between atoms: _540  and  _542
REMARK  226  A    between atoms: _542  and  _543
REMARK  227  A    between atoms: _542  and  _545
REMARK  228  A    between atoms: _545  and  _546
REMARK  229  A    between atoms: _549  and  _551
REMARK  230  A    between atoms: _551  and  _552
REMARK  231  A    between atoms: _551  and  _554
REMARK  232  A    between atoms: _554  and  _555
REMARK  233  A    between atoms: _560  and  _562
REMARK  234  A    between atoms: _562  and  _563
REMARK  235  A    between atoms: _562  and  _565
REMARK  236  A    between atoms: _565  and  _566
REMARK  237  A    between atoms: _566  and  _567
REMARK  238  A    between atoms: _567  and  _568
REMARK  239  A    between atoms: _577  and  _579
REMARK  240  A    between atoms: _579  and  _580
REMARK  241  A    between atoms: _579  and  _582
REMARK  242  A    between atoms: _582  and  _583
REMARK  243  A    between atoms: _586  and  _588
REMARK  244  A    between atoms: _588  and  _589
REMARK  245  A    between atoms: _588  and  _591
REMARK  246  A    between atoms: _591  and  _592
REMARK  247  A    between atoms: _595  and  _597
REMARK  248  A    between atoms: _597  and  _598
REMARK  249  A    between atoms: _597  and  _600
REMARK  250  A    between atoms: _600  and  _601
REMARK                            x       y       z     vdW  Elec       q    Type
REMARK                         _______ _______ _______ _____ _____    ______ ____
ROOT
ATOM      1  O   HOH     1    -128.804  35.348 116.474  0.00  0.00    +0.000 OA
ENDROOT
TORSDOF 0
REMARK  Name = ../refined-set-2016/2pqb/2pqb_pocket.pdb
REMARK  250 active torsions:
REMARK  status: ('A' for Active; 'I' for Inactive)
REMARK    1  A    between atoms: _1  and  _3
REMARK    2  A    between atoms: _3  and  _4
REMARK    3  A    between atoms: _3  and  _6
REMARK    4  A    between atoms: _6  and  _7
REMARK    5  A    between atoms: _10  and  _12
REMARK    6  A    between atoms: _12  and  _13
REMARK    7  A    between atoms: _12  and  _15
REMARK    8  A    between atoms: _15  and  _16
REMARK    9  A    between atoms: _16  and  _17
REMARK   10  A    between atoms: _17  and  _18
REMARK   11  A    between atoms: _18  and  _19
REMARK   12  A    between atoms: _23  and  _25
REMARK   13  A    between atoms: _25  and  _26
REMARK   14  A    between atoms: _25  and  _28
REMARK   15  A    between atoms: _28  and  _29
REMARK   16  A    between atoms: _31  and  _33
REMARK   17  A    between atoms: _33  and  _34
REMARK   18  A    between atoms: _33  and  _36
REMARK   19  A    between atoms: _36  and  _37
REMARK   20  A    between atoms: _40  and  _42
REMARK   21  A    between atoms: _42  and  _43
REMARK   22  A    between atoms: _42  and  _45
REMARK   23  A    between atoms: _45  and  _46
REMARK   24  A    between atoms: _48  and  _50
REMARK   25  A    between atoms: _50  and  _51
REMARK   26  A    between atoms: _50  and  _53
REMARK   27  A    between atoms: _53  and  _54
REMARK   28  A    between atoms: _59  and  _61
REMARK   29  A    between atoms: _61  and  _62
REMARK   30  A    between atoms: _61  and  _64
REMARK   31  A    between atoms: _64  and  _65
REMARK   32  A    between atoms: _65  and  _66
REMARK   33  A    between atoms: _66  and  _67
REMARK   34  A    between atoms: _76  and  _78
REMARK   35  A    between atoms: _78  and  _79
REMARK   36  A    between atoms: _78  and  _81
REMARK   37  A    between atoms: _81  and  _82
REMARK   38  A    between atoms: _85  and  _87
REMARK   39  A    between atoms: _87  and  _88
REMARK   40  A    between atoms: _87  and  _90
REMARK   41  A    between atoms: _90  and  _91
REMARK   42  A    between atoms: _94  and  _96
REMARK   43  A    between atoms: _96  and  _97
REMARK   44  A    between atoms: _96  and  _99
REMARK   45  A    between atoms: _99  and  _100
REMARK   46  A    between atoms: _106  and  _108
REMARK   47  A    between atoms: _108  and  _109
REMARK   48  A    between atoms: _108  and  _111
REMARK   49  A    between atoms: _111  and  _112
REMARK   50  A    between atoms: _117  and  _119
REMARK   51  A    between atoms: _119  and  _120
REMARK   52  A    between atoms: _123  and  _125
REMARK   53  A    between atoms: _125  and  _126
REMARK   54  A    between atoms: _129  and  _131
REMARK   55  A    between atoms: _131  and  _132
REMARK   56  A    between atoms: _131  and  _134
REMARK   57  A    between atoms: _134  and  _135
REMARK   58  A    between atoms: _138  and  _140
REMARK   59  A    between atoms: _140  and  _141
REMARK   60  A    between atoms: _143  and  _145
REMARK   61  A    between atoms: _145  and  _146
REMARK   62  A    between atoms: _145  and  _148
REMARK   63  A    between atoms: _150  and  _152
REMARK   64  A    between atoms: _152  and  _153
REMARK   65  A    between atoms: _152  and  _155
REMARK   66  A    between atoms: _155  and  _156
REMARK   67  A    between atoms: _156  and  _157
REMARK   68  A    between atoms: _157  and  _158
REMARK   69  A    between atoms: _167  and  _169
REMARK   70  A    between atoms: _169  and  _170
REMARK   71  A    between atoms: _169  and  _172
REMARK   72  A    between atoms: _172  and  _173
REMARK   73  A    between atoms: _176  and  _178
REMARK   74  A    between atoms: _178  and  _179
REMARK   75  A    between atoms: _178  and  _181
REMARK   76  A    between atoms: _181  and  _182
REMARK   77  A    between atoms: _184  and  _186
REMARK   78  A    between atoms: _186  and  _187
REMARK   79  A    between atoms: _186  and  _189
REMARK   80  A    between atoms: _189  and  _190
REMARK   81  A    between atoms: _193  and  _195
REMARK   82  A    between atoms: _195  and  _196
REMARK   83  A    between atoms: _195  and  _198
REMARK   84  A    between atoms: _198  and  _199
REMARK   85  A    between atoms: _199  and  _200
REMARK   86  A    between atoms: _200  and  _201
REMARK   87  A    between atoms: _211  and  _212
REMARK   88  A    between atoms: _217  and  _219
REMARK   89  A    between atoms: _219  and  _220
REMARK   90  A    between atoms: _219  and  _222
REMARK   91  A    between atoms: _222  and  _223
REMARK   92  A    between atoms: _223  and  _224
REMARK   93  A    between atoms: _224  and  _225
REMARK   94  A    between atoms: _234  and  _236
REMARK   95  A    between atoms: _236  and  _237
REMARK   96  A    between atoms: _236  and  _239
REMARK   97  A    between atoms: _242  and  _244
REMARK   98  A    between atoms: _244  and  _245
REMARK   99  A    between atoms: _244  and  _247
REMARK  100  A    between atoms: _250  and  _252
REMARK  101  A    between atoms: _252  and  _253
REMARK  102  A    between atoms: _252  and  _255
REMARK  103  A    between atoms: _255  and  _256
REMARK  104  A    between atoms: _256  and  _257
REMARK  105  A    between atoms: _259  and  _261
REMARK  106  A    between atoms: _261  and  _262
REMARK  107  A    between atoms: _265  and  _267
REMARK  108  A    between atoms: _267  and  _268
REMARK  109  A    between atoms: _267  and  _270
REMARK  110  A    between atoms: _270  and  _271
REMARK  111  A    between atoms: _273  and  _275
REMARK  112  A    between atoms: _275  and  _276
REMARK  113  A    between atoms: _279  and  _281
REMARK  114  A    between atoms: _281  and  _282
REMARK  115  A    between atoms: _281  and  _284
REMARK  116  A    between atoms: _284  and  _285
REMARK  117  A    between atoms: _285  and  _286
REMARK  118  A    between atoms: _291  and  _293
REMARK  119  A    between atoms: _293  and  _294
REMARK  120  A    between atoms: _293  and  _296
REMARK  121  A    between atoms: _299  and  _301
REMARK  122  A    between atoms: _301  and  _302
REMARK  123  A    between atoms: _301  and  _304
REMARK  124  A    between atoms: _304  and  _305
REMARK  125  A    between atoms: _305  and  _306
REMARK  126  A    between atoms: _306  and  _307
REMARK  127  A    between atoms: _307  and  _308
REMARK  128  A    between atoms: _312  and  _314
REMARK  129  A    between atoms: _314  and  _315
REMARK  130  A    between atoms: _314  and  _317
REMARK  131  A    between atoms: _317  and  _318
REMARK  132  A    between atoms: _320  and  _322
REMARK  133  A    between atoms: _322  and  _323
REMARK  134  A    between atoms: _326  and  _328
REMARK  135  A    between atoms: _328  and  _329
REMARK  136  A    between atoms: _328  and  _331
REMARK  137  A    between atoms: _331  and  _332
REMARK  138  A    between atoms: _335  and  _337
REMARK  139  A    between atoms: _337  and  _338
REMARK  140  A    between atoms: _337  and  _340
REMARK  141  A    between atoms: _340  and  _341
REMARK  142  A    between atoms: _341  and  _342
REMARK  143  A    between atoms: _342  and  _343
REMARK  144  A    between atoms: _352  and  _354
REMARK  145  A    between atoms: _354  and  _355
REMARK  146  A    between atoms: _354  and  _357
REMARK  147  A    between atoms: _357  and  _358
REMARK  148  A    between atoms: _361  and  _363
REMARK  149  A    between atoms: _363  and  _364
REMARK  150  A    between atoms: _363  and  _366
REMARK  151  A    between atoms: _366  and  _367
REMARK  152  A    between atoms: _372  and  _374
REMARK  153  A    between atoms: _374  and  _375
REMARK  154  A    between atoms: _374  and  _377
REMARK  155  A    between atoms: _377  and  _378
REMARK  156  A    between atoms: _381  and  _383
REMARK  157  A    between atoms: _383  and  _384
REMARK  158  A    between atoms: _383  and  _386
REMARK  159  A    between atoms: _386  and  _387
REMARK  160  A    between atoms: _390  and  _392
REMARK  161  A    between atoms: _392  and  _393
REMARK  162  A    between atoms: _392  and  _395
REMARK  163  A    between atoms: _395  and  _396
REMARK  164  A    between atoms: _398  and  _400
REMARK  165  A    between atoms: _400  and  _401
REMARK  166  A    between atoms: _400  and  _403
REMARK  167  A    between atoms: _403  and  _404
REMARK  168  A    between atoms: _404  and  _405
REMARK  169  A    between atoms: _405  and  _406
REMARK  170  A    between atoms: _415  and  _417
REMARK  171  A    between atoms: _417  and  _418
REMARK  172  A    between atoms: _422  and  _423
REMARK  173  A    between atoms: _428  and  _430
REMARK  174  A    between atoms: _430  and  _431
REMARK  175  A    between atoms: _430  and  _433
REMARK  176  A    between atoms: _433  and  _434
REMARK  177  A    between atoms: _434  and  _435
REMARK  178  A    between atoms: _437  and  _439
REMARK  179  A    between atoms: _439  and  _440
REMARK  180  A    between atoms: _439  and  _442
REMARK  181  A    between atoms: _442  and  _443
REMARK  182  A    between atoms: _446  and  _448
REMARK  183  A    between atoms: _448  and  _449
REMARK  184  A    between atoms: _448  and  _451
REMARK  185  A    between atoms: _451  and  _452
REMARK  186  A    between atoms: _455  and  _457
REMARK  187  A    between atoms: _457  and  _458
REMARK  188  A    between atoms: _457  and  _460
REMARK  189  A    between atoms: _460  and  _461
REMARK  190  A    between atoms: _461  and  _462
REMARK  191  A    between atoms: _465  and  _467
REMARK  192  A    between atoms: _467  and  _468
REMARK  193  A    between atoms: _467  and  _470
REMARK  194  A    between atoms: _470  and  _471
REMARK  195  A    between atoms: _471  and  _472
REMARK  196  A    between atoms: _475  and  _477
REMARK  197  A    between atoms: _477  and  _478
REMARK  198  A    between atoms: _477  and  _480
REMARK  199  A    between atoms: _480  and  _481
REMARK  200  A    between atoms: _484  and  _486
REMARK  201  A    between atoms: _486  and  _487
REMARK  202  A    between atoms: _486  and  _489
REMARK  203  A    between atoms: _492  and  _494
REMARK  204  A    between atoms: _494  and  _495
REMARK  205  A    between atoms: _494  and  _497
REMARK  206  A    between atoms: _497  and  _498
REMARK  207  A    between atoms: _498  and  _499
REMARK  208  A    between atoms: _499  and  _500
REMARK  209  A    between atoms: _500  and  _501
REMARK  210  A    between atoms: _505  and  _507
REMARK  211  A    between atoms: _507  and  _508
REMARK  212  A    between atoms: _507  and  _510
REMARK  213  A    between atoms: _510  and  _511
REMARK  214  A    between atoms: _511  and  _512
REMARK  215  A    between atoms: _515  and  _517
REMARK  216  A    between atoms: _517  and  _518
REMARK  217  A    between atoms: _517  and  _520
REMARK  218  A    between atoms: _520  and  _521
REMARK  219  A    between atoms: _523  and  _525
REMARK  220  A    between atoms: _525  and  _526
REMARK  221  A    between atoms: _525  and  _528
REMARK  222  A    between atoms: _528  and  _529
REMARK  223  A    between atoms: _529  and  _530
REMARK  224  A    between atoms: _530  and  _531
REMARK  225  A    between atoms: _540  and  _542
REMARK  226  A    between atoms: _542  and  _543
REMARK  227  A    between atoms: _542  and  _545
REMARK  228  A    between atoms: _545  and  _546
REMARK  229  A    between atoms: _549  and  _551
REMARK  230  A    between atoms: _551  and  _552
REMARK  231  A    between atoms: _551  and  _554
REMARK  232  A    between atoms: _554  and  _555
REMARK  233  A    between atoms: _560  and  _562
REMARK  234  A    between atoms: _562  and  _563
REMARK  235  A    between atoms: _562  and  _565
REMARK  236  A    between atoms: _565  and  _566
REMARK  237  A    between atoms: _566  and  _567
REMARK  238  A    between atoms: _567  and  _568
REMARK  239  A    between atoms: _577  and  _579
REMARK  240  A    between atoms: _579  and  _580
REMARK  241  A    between atoms: _579  and  _582
REMARK  242  A    between atoms: _582  and  _583
REMARK  243  A    between atoms: _586  and  _588
REMARK  244  A    between atoms: _588  and  _589
REMARK  245  A    between atoms: _588  and  _591
REMARK  246  A    between atoms: _591  and  _592
REMARK  247  A    between atoms: _595  and  _597
REMARK  248  A    between atoms: _597  and  _598
REMARK  249  A    between atoms: _597  and  _600
REMARK  250  A    between atoms: _600  and  _601
REMARK                            x       y       z     vdW  Elec       q    Type
REMARK                         _______ _______ _______ _____ _____    ______ ____
ROOT
ATOM      1  O   HOH     1    -135.934  26.527 131.083  0.00  0.00    +0.000 OA
ENDROOT
TORSDOF 0
REMARK  Name = ../refined-set-2016/2pqb/2pqb_pocket.pdb
REMARK  250 active torsions:
REMARK  status: ('A' for Active; 'I' for Inactive)
REMARK    1  A    between atoms: _1  and  _3
REMARK    2  A    between atoms: _3  and  _4
REMARK    3  A    between atoms: _3  and  _6
REMARK    4  A    between atoms: _6  and  _7
REMARK    5  A    between atoms: _10  and  _12
REMARK    6  A    between atoms: _12  and  _13
REMARK    7  A    between atoms: _12  and  _15
REMARK    8  A    between atoms: _15  and  _16
REMARK    9  A    between atoms: _16  and  _17
REMARK   10  A    between atoms: _17  and  _18
REMARK   11  A    between atoms: _18  and  _19
REMARK   12  A    between atoms: _23  and  _25
REMARK   13  A    between atoms: _25  and  _26
REMARK   14  A    between atoms: _25  and  _28
REMARK   15  A    between atoms: _28  and  _29
REMARK   16  A    between atoms: _31  and  _33
REMARK   17  A    between atoms: _33  and  _34
REMARK   18  A    between atoms: _33  and  _36
REMARK   19  A    between atoms: _36  and  _37
REMARK   20  A    between atoms: _40  and  _42
REMARK   21  A    between atoms: _42  and  _43
REMARK   22  A    between atoms: _42  and  _45
REMARK   23  A    between atoms: _45  and  _46
REMARK   24  A    between atoms: _48  and  _50
REMARK   25  A    between atoms: _50  and  _51
REMARK   26  A    between atoms: _50  and  _53
REMARK   27  A    between atoms: _53  and  _54
REMARK   28  A    between atoms: _59  and  _61
REMARK   29  A    between atoms: _61  and  _62
REMARK   30  A    between atoms: _61  and  _64
REMARK   31  A    between atoms: _64  and  _65
REMARK   32  A    between atoms: _65  and  _66
REMARK   33  A    between atoms: _66  and  _67
REMARK   34  A    between atoms: _76  and  _78
REMARK   35  A    between atoms: _78  and  _79
REMARK   36  A    between atoms: _78  and  _81
REMARK   37  A    between atoms: _81  and  _82
REMARK   38  A    between atoms: _85  and  _87
REMARK   39  A    between atoms: _87  and  _88
REMARK   40  A    between atoms: _87  and  _90
REMARK   41  A    between atoms: _90  and  _91
REMARK   42  A    between atoms: _94  and  _96
REMARK   43  A    between atoms: _96  and  _97
REMARK   44  A    between atoms: _96  and  _99
REMARK   45  A    between atoms: _99  and  _100
REMARK   46  A    between atoms: _106  and  _108
REMARK   47  A    between atoms: _108  and  _109
REMARK   48  A    between atoms: _108  and  _111
REMARK   49  A    between atoms: _111  and  _112
REMARK   50  A    between atoms: _117  and  _119
REMARK   51  A    between atoms: _119  and  _120
REMARK   52  A    between atoms: _123  and  _125
REMARK   53  A    between atoms: _125  and  _126
REMARK   54  A    between atoms: _129  and  _131
REMARK   55  A    between atoms: _131  and  _132
REMARK   56  A    between atoms: _131  and  _134
REMARK   57  A    between atoms: _134  and  _135
REMARK   58  A    between atoms: _138  and  _140
REMARK   59  A    between atoms: _140  and  _141
REMARK   60  A    between atoms: _143  and  _145
REMARK   61  A    between atoms: _145  and  _146
REMARK   62  A    between atoms: _145  and  _148
REMARK   63  A    between atoms: _150  and  _152
REMARK   64  A    between atoms: _152  and  _153
REMARK   65  A    between atoms: _152  and  _155
REMARK   66  A    between atoms: _155  and  _156
REMARK   67  A    between atoms: _156  and  _157
REMARK   68  A    between atoms: _157  and  _158
REMARK   69  A    between atoms: _167  and  _169
REMARK   70  A    between atoms: _169  and  _170
REMARK   71  A    between atoms: _169  and  _172
REMARK   72  A    between atoms: _172  and  _173
REMARK   73  A    between atoms: _176  and  _178
REMARK   74  A    between atoms: _178  and  _179
REMARK   75  A    between atoms: _178  and  _181
REMARK   76  A    between atoms: _181  and  _182
REMARK   77  A    between atoms: _184  and  _186
REMARK   78  A    between atoms: _186  and  _187
REMARK   79  A    between atoms: _186  and  _189
REMARK   80  A    between atoms: _189  and  _190
REMARK   81  A    between atoms: _193  and  _195
REMARK   82  A    between atoms: _195  and  _196
REMARK   83  A    between atoms: _195  and  _198
REMARK   84  A    between atoms: _198  and  _199
REMARK   85  A    between atoms: _199  and  _200
REMARK   86  A    between atoms: _200  and  _201
REMARK   87  A    between atoms: _211  and  _212
REMARK   88  A    between atoms: _217  and  _219
REMARK   89  A    between atoms: _219  and  _220
REMARK   90  A    between atoms: _219  and  _222
REMARK   91  A    between atoms: _222  and  _223
REMARK   92  A    between atoms: _223  and  _224
REMARK   93  A    between atoms: _224  and  _225
REMARK   94  A    between atoms: _234  and  _236
REMARK   95  A    between atoms: _236  and  _237
REMARK   96  A    between atoms: _236  and  _239
REMARK   97  A    between atoms: _242  and  _244
REMARK   98  A    between atoms: _244  and  _245
REMARK   99  A    between atoms: _244  and  _247
REMARK  100  A    between atoms: _250  and  _252
REMARK  101  A    between atoms: _252  and  _253
REMARK  102  A    between atoms: _252  and  _255
REMARK  103  A    between atoms: _255  and  _256
REMARK  104  A    between atoms: _256  and  _257
REMARK  105  A    between atoms: _259  and  _261
REMARK  106  A    between atoms: _261  and  _262
REMARK  107  A    between atoms: _265  and  _267
REMARK  108  A    between atoms: _267  and  _268
REMARK  109  A    between atoms: _267  and  _270
REMARK  110  A    between atoms: _270  and  _271
REMARK  111  A    between atoms: _273  and  _275
REMARK  112  A    between atoms: _275  and  _276
REMARK  113  A    between atoms: _279  and  _281
REMARK  114  A    between atoms: _281  and  _282
REMARK  115  A    between atoms: _281  and  _284
REMARK  116  A    between atoms: _284  and  _285
REMARK  117  A    between atoms: _285  and  _286
REMARK  118  A    between atoms: _291  and  _293
REMARK  119  A    between atoms: _293  and  _294
REMARK  120  A    between atoms: _293  and  _296
REMARK  121  A    between atoms: _299  and  _301
REMARK  122  A    between atoms: _301  and  _302
REMARK  123  A    between atoms: _301  and  _304
REMARK  124  A    between atoms: _304  and  _305
REMARK  125  A    between atoms: _305  and  _306
REMARK  126  A    between atoms: _306  and  _307
REMARK  127  A    between atoms: _307  and  _308
REMARK  128  A    between atoms: _312  and  _314
REMARK  129  A    between atoms: _314  and  _315
REMARK  130  A    between atoms: _314  and  _317
REMARK  131  A    between atoms: _317  and  _318
REMARK  132  A    between atoms: _320  and  _322
REMARK  133  A    between atoms: _322  and  _323
REMARK  134  A    between atoms: _326  and  _328
REMARK  135  A    between atoms: _328  and  _329
REMARK  136  A    between atoms: _328  and  _331
REMARK  137  A    between atoms: _331  and  _332
REMARK  138  A    between atoms: _335  and  _337
REMARK  139  A    between atoms: _337  and  _338
REMARK  140  A    between atoms: _337  and  _340
REMARK  141  A    between atoms: _340  and  _341
REMARK  142  A    between atoms: _341  and  _342
REMARK  143  A    between atoms: _342  and  _343
REMARK  144  A    between atoms: _352  and  _354
REMARK  145  A    between atoms: _354  and  _355
REMARK  146  A    between atoms: _354  and  _357
REMARK  147  A    between atoms: _357  and  _358
REMARK  148  A    between atoms: _361  and  _363
REMARK  149  A    between atoms: _363  and  _364
REMARK  150  A    between atoms: _363  and  _366
REMARK  151  A    between atoms: _366  and  _367
REMARK  152  A    between atoms: _372  and  _374
REMARK  153  A    between atoms: _374  and  _375
REMARK  154  A    between atoms: _374  and  _377
REMARK  155  A    between atoms: _377  and  _378
REMARK  156  A    between atoms: _381  and  _383
REMARK  157  A    between atoms: _383  and  _384
REMARK  158  A    between atoms: _383  and  _386
REMARK  159  A    between atoms: _386  and  _387
REMARK  160  A    between atoms: _390  and  _392
REMARK  161  A    between atoms: _392  and  _393
REMARK  162  A    between atoms: _392  and  _395
REMARK  163  A    between atoms: _395  and  _396
REMARK  164  A    between atoms: _398  and  _400
REMARK  165  A    between atoms: _400  and  _401
REMARK  166  A    between atoms: _400  and  _403
REMARK  167  A    between atoms: _403  and  _404
REMARK  168  A    between atoms: _404  and  _405
REMARK  169  A    between atoms: _405  and  _406
REMARK  170  A    between atoms: _415  and  _417
REMARK  171  A    between atoms: _417  and  _418
REMARK  172  A    between atoms: _422  and  _423
REMARK  173  A    between atoms: _428  and  _430
REMARK  174  A    between atoms: _430  and  _431
REMARK  175  A    between atoms: _430  and  _433
REMARK  176  A    between atoms: _433  and  _434
REMARK  177  A    between atoms: _434  and  _435
REMARK  178  A    between atoms: _437  and  _439
REMARK  179  A    between atoms: _439  and  _440
REMARK  180  A    between atoms: _439  and  _442
REMARK  181  A    between atoms: _442  and  _443
REMARK  182  A    between atoms: _446  and  _448
REMARK  183  A    between atoms: _448  and  _449
REMARK  184  A    between atoms: _448  and  _451
REMARK  185  A    between atoms: _451  and  _452
REMARK  186  A    between atoms: _455  and  _457
REMARK  187  A    between atoms: _457  and  _458
REMARK  188  A    between atoms: _457  and  _460
REMARK  189  A    between atoms: _460  and  _461
REMARK  190  A    between atoms: _461  and  _462
REMARK  191  A    between atoms: _465  and  _467
REMARK  192  A    between atoms: _467  and  _468
REMARK  193  A    between atoms: _467  and  _470
REMARK  194  A    between atoms: _470  and  _471
REMARK  195  A    between atoms: _471  and  _472
REMARK  196  A    between atoms: _475  and  _477
REMARK  197  A    between atoms: _477  and  _478
REMARK  198  A    between atoms: _477  and  _480
REMARK  199  A    between atoms: _480  and  _481
REMARK  200  A    between atoms: _484  and  _486
REMARK  201  A    between atoms: _486  and  _487
REMARK  202  A    between atoms: _486  and  _489
REMARK  203  A    between atoms: _492  and  _494
REMARK  204  A    between atoms: _494  and  _495
REMARK  205  A    between atoms: _494  and  _497
REMARK  206  A    between atoms: _497  and  _498
REMARK  207  A    between atoms: _498  and  _499
REMARK  208  A    between atoms: _499  and  _500
REMARK  209  A    between atoms: _500  and  _501
REMARK  210  A    between atoms: _505  and  _507
REMARK  211  A    between atoms: _507  and  _508
REMARK  212  A    between atoms: _507  and  _510
REMARK  213  A    between atoms: _510  and  _511
REMARK  214  A    between atoms: _511  and  _512
REMARK  215  A    between atoms: _515  and  _517
REMARK  216  A    between atoms: _517  and  _518
REMARK  217  A    between atoms: _517  and  _520
REMARK  218  A    between atoms: _520  and  _521
REMARK  219  A    between atoms: _523  and  _525
REMARK  220  A    between atoms: _525  and  _526
REMARK  221  A    between atoms: _525  and  _528
REMARK  222  A    between atoms: _528  and  _529
REMARK  223  A    between atoms: _529  and  _530
REMARK  224  A    between atoms: _530  and  _531
REMARK  225  A    between atoms: _540  and  _542
REMARK  226  A    between atoms: _542  and  _543
REMARK  227  A    between atoms: _542  and  _545
REMARK  228  A    between atoms: _545  and  _546
REMARK  229  A    between atoms: _549  and  _551
REMARK  230  A    between atoms: _551  and  _552
REMARK  231  A    between atoms: _551  and  _554
REMARK  232  A    between atoms: _554  and  _555
REMARK  233  A    between atoms: _560  and  _562
REMARK  234  A    between atoms: _562  and  _563
REMARK  235  A    between atoms: _562  and  _565
REMARK  236  A    between atoms: _565  and  _566
REMARK  237  A    between atoms: _566  and  _567
REMARK  238  A    between atoms: _567  and  _568
REMARK  239  A    between atoms: _577  and  _579
REMARK  240  A    between atoms: _579  and  _580
REMARK  241  A    between atoms: _579  and  _582
REMARK  242  A    between atoms: _582  and  _583
REMARK  243  A    between atoms: _586  and  _588
REMARK  244  A    between atoms: _588  and  _589
REMARK  245  A    between atoms: _588  and  _591
REMARK  246  A    between atoms: _591  and  _592
REMARK  247  A    between atoms: _595  and  _597
REMARK  248  A    between atoms: _597  and  _598
REMARK  249  A    between atoms: _597  and  _600
REMARK  250  A    between atoms: _600  and  _601
REMARK                            x       y       z     vdW  Elec       q    Type
REMARK                         _______ _______ _______ _____ _____    ______ ____
ROOT
ATOM      1  O   HOH     1    -129.985  26.338 121.541  0.00  0.00    +0.000 OA
ENDROOT
TORSDOF 0
REMARK  Name = ../refined-set-2016/2pqb/2pqb_pocket.pdb
REMARK  250 active torsions:
REMARK  status: ('A' for Active; 'I' for Inactive)
REMARK    1  A    between atoms: _1  and  _3
REMARK    2  A    between atoms: _3  and  _4
REMARK    3  A    between atoms: _3  and  _6
REMARK    4  A    between atoms: _6  and  _7
REMARK    5  A    between atoms: _10  and  _12
REMARK    6  A    between atoms: _12  and  _13
REMARK    7  A    between atoms: _12  and  _15
REMARK    8  A    between atoms: _15  and  _16
REMARK    9  A    between atoms: _16  and  _17
REMARK   10  A    between atoms: _17  and  _18
REMARK   11  A    between atoms: _18  and  _19
REMARK   12  A    between atoms: _23  and  _25
REMARK   13  A    between atoms: _25  and  _26
REMARK   14  A    between atoms: _25  and  _28
REMARK   15  A    between atoms: _28  and  _29
REMARK   16  A    between atoms: _31  and  _33
REMARK   17  A    between atoms: _33  and  _34
REMARK   18  A    between atoms: _33  and  _36
REMARK   19  A    between atoms: _36  and  _37
REMARK   20  A    between atoms: _40  and  _42
REMARK   21  A    between atoms: _42  and  _43
REMARK   22  A    between atoms: _42  and  _45
REMARK   23  A    between atoms: _45  and  _46
REMARK   24  A    between atoms: _48  and  _50
REMARK   25  A    between atoms: _50  and  _51
REMARK   26  A    between atoms: _50  and  _53
REMARK   27  A    between atoms: _53  and  _54
REMARK   28  A    between atoms: _59  and  _61
REMARK   29  A    between atoms: _61  and  _62
REMARK   30  A    between atoms: _61  and  _64
REMARK   31  A    between atoms: _64  and  _65
REMARK   32  A    between atoms: _65  and  _66
REMARK   33  A    between atoms: _66  and  _67
REMARK   34  A    between atoms: _76  and  _78
REMARK   35  A    between atoms: _78  and  _79
REMARK   36  A    between atoms: _78  and  _81
REMARK   37  A    between atoms: _81  and  _82
REMARK   38  A    between atoms: _85  and  _87
REMARK   39  A    between atoms: _87  and  _88
REMARK   40  A    between atoms: _87  and  _90
REMARK   41  A    between atoms: _90  and  _91
REMARK   42  A    between atoms: _94  and  _96
REMARK   43  A    between atoms: _96  and  _97
REMARK   44  A    between atoms: _96  and  _99
REMARK   45  A    between atoms: _99  and  _100
REMARK   46  A    between atoms: _106  and  _108
REMARK   47  A    between atoms: _108  and  _109
REMARK   48  A    between atoms: _108  and  _111
REMARK   49  A    between atoms: _111  and  _112
REMARK   50  A    between atoms: _117  and  _119
REMARK   51  A    between atoms: _119  and  _120
REMARK   52  A    between atoms: _123  and  _125
REMARK   53  A    between atoms: _125  and  _126
REMARK   54  A    between atoms: _129  and  _131
REMARK   55  A    between atoms: _131  and  _132
REMARK   56  A    between atoms: _131  and  _134
REMARK   57  A    between atoms: _134  and  _135
REMARK   58  A    between atoms: _138  and  _140
REMARK   59  A    between atoms: _140  and  _141
REMARK   60  A    between atoms: _143  and  _145
REMARK   61  A    between atoms: _145  and  _146
REMARK   62  A    between atoms: _145  and  _148
REMARK   63  A    between atoms: _150  and  _152
REMARK   64  A    between atoms: _152  and  _153
REMARK   65  A    between atoms: _152  and  _155
REMARK   66  A    between atoms: _155  and  _156
REMARK   67  A    between atoms: _156  and  _157
REMARK   68  A    between atoms: _157  and  _158
REMARK   69  A    between atoms: _167  and  _169
REMARK   70  A    between atoms: _169  and  _170
REMARK   71  A    between atoms: _169  and  _172
REMARK   72  A    between atoms: _172  and  _173
REMARK   73  A    between atoms: _176  and  _178
REMARK   74  A    between atoms: _178  and  _179
REMARK   75  A    between atoms: _178  and  _181
REMARK   76  A    between atoms: _181  and  _182
REMARK   77  A    between atoms: _184  and  _186
REMARK   78  A    between atoms: _186  and  _187
REMARK   79  A    between atoms: _186  and  _189
REMARK   80  A    between atoms: _189  and  _190
REMARK   81  A    between atoms: _193  and  _195
REMARK   82  A    between atoms: _195  and  _196
REMARK   83  A    between atoms: _195  and  _198
REMARK   84  A    between atoms: _198  and  _199
REMARK   85  A    between atoms: _199  and  _200
REMARK   86  A    between atoms: _200  and  _201
REMARK   87  A    between atoms: _211  and  _212
REMARK   88  A    between atoms: _217  and  _219
REMARK   89  A    between atoms: _219  and  _220
REMARK   90  A    between atoms: _219  and  _222
REMARK   91  A    between atoms: _222  and  _223
REMARK   92  A    between atoms: _223  and  _224
REMARK   93  A    between atoms: _224  and  _225
REMARK   94  A    between atoms: _234  and  _236
REMARK   95  A    between atoms: _236  and  _237
REMARK   96  A    between atoms: _236  and  _239
REMARK   97  A    between atoms: _242  and  _244
REMARK   98  A    between atoms: _244  and  _245
REMARK   99  A    between atoms: _244  and  _247
REMARK  100  A    between atoms: _250  and  _252
REMARK  101  A    between atoms: _252  and  _253
REMARK  102  A    between atoms: _252  and  _255
REMARK  103  A    between atoms: _255  and  _256
REMARK  104  A    between atoms: _256  and  _257
REMARK  105  A    between atoms: _259  and  _261
REMARK  106  A    between atoms: _261  and  _262
REMARK  107  A    between atoms: _265  and  _267
REMARK  108  A    between atoms: _267  and  _268
REMARK  109  A    between atoms: _267  and  _270
REMARK  110  A    between atoms: _270  and  _271
REMARK  111  A    between atoms: _273  and  _275
REMARK  112  A    between atoms: _275  and  _276
REMARK  113  A    between atoms: _279  and  _281
REMARK  114  A    between atoms: _281  and  _282
REMARK  115  A    between atoms: _281  and  _284
REMARK  116  A    between atoms: _284  and  _285
REMARK  117  A    between atoms: _285  and  _286
REMARK  118  A    between atoms: _291  and  _293
REMARK  119  A    between atoms: _293  and  _294
REMARK  120  A    between atoms: _293  and  _296
REMARK  121  A    between atoms: _299  and  _301
REMARK  122  A    between atoms: _301  and  _302
REMARK  123  A    between atoms: _301  and  _304
REMARK  124  A    between atoms: _304  and  _305
REMARK  125  A    between atoms: _305  and  _306
REMARK  126  A    between atoms: _306  and  _307
REMARK  127  A    between atoms: _307  and  _308
REMARK  128  A    between atoms: _312  and  _314
REMARK  129  A    between atoms: _314  and  _315
REMARK  130  A    between atoms: _314  and  _317
REMARK  131  A    between atoms: _317  and  _318
REMARK  132  A    between atoms: _320  and  _322
REMARK  133  A    between atoms: _322  and  _323
REMARK  134  A    between atoms: _326  and  _328
REMARK  135  A    between atoms: _328  and  _329
REMARK  136  A    between atoms: _328  and  _331
REMARK  137  A    between atoms: _331  and  _332
REMARK  138  A    between atoms: _335  and  _337
REMARK  139  A    between atoms: _337  and  _338
REMARK  140  A    between atoms: _337  and  _340
REMARK  141  A    between atoms: _340  and  _341
REMARK  142  A    between atoms: _341  and  _342
REMARK  143  A    between atoms: _342  and  _343
REMARK  144  A    between atoms: _352  and  _354
REMARK  145  A    between atoms: _354  and  _355
REMARK  146  A    between atoms: _354  and  _357
REMARK  147  A    between atoms: _357  and  _358
REMARK  148  A    between atoms: _361  and  _363
REMARK  149  A    between atoms: _363  and  _364
REMARK  150  A    between atoms: _363  and  _366
REMARK  151  A    between atoms: _366  and  _367
REMARK  152  A    between atoms: _372  and  _374
REMARK  153  A    between atoms: _374  and  _375
REMARK  154  A    between atoms: _374  and  _377
REMARK  155  A    between atoms: _377  and  _378
REMARK  156  A    between atoms: _381  and  _383
REMARK  157  A    between atoms: _383  and  _384
REMARK  158  A    between atoms: _383  and  _386
REMARK  159  A    between atoms: _386  and  _387
REMARK  160  A    between atoms: _390  and  _392
REMARK  161  A    between atoms: _392  and  _393
REMARK  162  A    between atoms: _392  and  _395
REMARK  163  A    between atoms: _395  and  _396
REMARK  164  A    between atoms: _398  and  _400
REMARK  165  A    between atoms: _400  and  _401
REMARK  166  A    between atoms: _400  and  _403
REMARK  167  A    between atoms: _403  and  _404
REMARK  168  A    between atoms: _404  and  _405
REMARK  169  A    between atoms: _405  and  _406
REMARK  170  A    between atoms: _415  and  _417
REMARK  171  A    between atoms: _417  and  _418
REMARK  172  A    between atoms: _422  and  _423
REMARK  173  A    between atoms: _428  and  _430
REMARK  174  A    between atoms: _430  and  _431
REMARK  175  A    between atoms: _430  and  _433
REMARK  176  A    between atoms: _433  and  _434
REMARK  177  A    between atoms: _434  and  _435
REMARK  178  A    between atoms: _437  and  _439
REMARK  179  A    between atoms: _439  and  _440
REMARK  180  A    between atoms: _439  and  _442
REMARK  181  A    between atoms: _442  and  _443
REMARK  182  A    between atoms: _446  and  _448
REMARK  183  A    between atoms: _448  and  _449
REMARK  184  A    between atoms: _448  and  _451
REMARK  185  A    between atoms: _451  and  _452
REMARK  186  A    between atoms: _455  and  _457
REMARK  187  A    between atoms: _457  and  _458
REMARK  188  A    between atoms: _457  and  _460
REMARK  189  A    between atoms: _460  and  _461
REMARK  190  A    between atoms: _461  and  _462
REMARK  191  A    between atoms: _465  and  _467
REMARK  192  A    between atoms: _467  and  _468
REMARK  193  A    between atoms: _467  and  _470
REMARK  194  A    between atoms: _470  and  _471
REMARK  195  A    between atoms: _471  and  _472
REMARK  196  A    between atoms: _475  and  _477
REMARK  197  A    between atoms: _477  and  _478
REMARK  198  A    between atoms: _477  and  _480
REMARK  199  A    between atoms: _480  and  _481
REMARK  200  A    between atoms: _484  and  _486
REMARK  201  A    between atoms: _486  and  _487
REMARK  202  A    between atoms: _486  and  _489
REMARK  203  A    between atoms: _492  and  _494
REMARK  204  A    between atoms: _494  and  _495
REMARK  205  A    between atoms: _494  and  _497
REMARK  206  A    between atoms: _497  and  _498
REMARK  207  A    between atoms: _498  and  _499
REMARK  208  A    between atoms: _499  and  _500
REMARK  209  A    between atoms: _500  and  _501
REMARK  210  A    between atoms: _505  and  _507
REMARK  211  A    between atoms: _507  and  _508
REMARK  212  A    between atoms: _507  and  _510
REMARK  213  A    between atoms: _510  and  _511
REMARK  214  A    between atoms: _511  and  _512
REMARK  215  A    between atoms: _515  and  _517
REMARK  216  A    between atoms: _517  and  _518
REMARK  217  A    between atoms: _517  and  _520
REMARK  218  A    between atoms: _520  and  _521
REMARK  219  A    between atoms: _523  and  _525
REMARK  220  A    between atoms: _525  and  _526
REMARK  221  A    between atoms: _525  and  _528
REMARK  222  A    between atoms: _528  and  _529
REMARK  223  A    between atoms: _529  and  _530
REMARK  224  A    between atoms: _530  and  _531
REMARK  225  A    between atoms: _540  and  _542
REMARK  226  A    between atoms: _542  and  _543
REMARK  227  A    between atoms: _542  and  _545
REMARK  228  A    between atoms: _545  and  _546
REMARK  229  A    between atoms: _549  and  _551
REMARK  230  A    between atoms: _551  and  _552
REMARK  231  A    between atoms: _551  and  _554
REMARK  232  A    between atoms: _554  and  _555
REMARK  233  A    between atoms: _560  and  _562
REMARK  234  A    between atoms: _562  and  _563
REMARK  235  A    between atoms: _562  and  _565
REMARK  236  A    between atoms: _565  and  _566
REMARK  237  A    between atoms: _566  and  _567
REMARK  238  A    between atoms: _567  and  _568
REMARK  239  A    between atoms: _577  and  _579
REMARK  240  A    between atoms: _579  and  _580
REMARK  241  A    between atoms: _579  and  _582
REMARK  242  A    between atoms: _582  and  _583
REMARK  243  A    between atoms: _586  and  _588
REMARK  244  A    between atoms: _588  and  _589
REMARK  245  A    between atoms: _588  and  _591
REMARK  246  A    between atoms: _591  and  _592
REMARK  247  A    between atoms: _595  and  _597
REMARK  248  A    between atoms: _597  and  _598
REMARK  249  A    between atoms: _597  and  _600
REMARK  250  A    between atoms: _600  and  _601
REMARK                            x       y       z     vdW  Elec       q    Type
REMARK                         _______ _______ _______ _____ _____    ______ ____
ROOT
ATOM      1  O   HOH     1    -129.400  27.968 123.548  0.00  0.00    +0.000 OA
ENDROOT
TORSDOF 0
REMARK  Name = ../refined-set-2016/2pqb/2pqb_pocket.pdb
REMARK  250 active torsions:
REMARK  status: ('A' for Active; 'I' for Inactive)
REMARK    1  A    between atoms: _1  and  _3
REMARK    2  A    between atoms: _3  and  _4
REMARK    3  A    between atoms: _3  and  _6
REMARK    4  A    between atoms: _6  and  _7
REMARK    5  A    between atoms: _10  and  _12
REMARK    6  A    between atoms: _12  and  _13
REMARK    7  A    between atoms: _12  and  _15
REMARK    8  A    between atoms: _15  and  _16
REMARK    9  A    between atoms: _16  and  _17
REMARK   10  A    between atoms: _17  and  _18
REMARK   11  A    between atoms: _18  and  _19
REMARK   12  A    between atoms: _23  and  _25
REMARK   13  A    between atoms: _25  and  _26
REMARK   14  A    between atoms: _25  and  _28
REMARK   15  A    between atoms: _28  and  _29
REMARK   16  A    between atoms: _31  and  _33
REMARK   17  A    between atoms: _33  and  _34
REMARK   18  A    between atoms: _33  and  _36
REMARK   19  A    between atoms: _36  and  _37
REMARK   20  A    between atoms: _40  and  _42
REMARK   21  A    between atoms: _42  and  _43
REMARK   22  A    between atoms: _42  and  _45
REMARK   23  A    between atoms: _45  and  _46
REMARK   24  A    between atoms: _48  and  _50
REMARK   25  A    between atoms: _50  and  _51
REMARK   26  A    between atoms: _50  and  _53
REMARK   27  A    between atoms: _53  and  _54
REMARK   28  A    between atoms: _59  and  _61
REMARK   29  A    between atoms: _61  and  _62
REMARK   30  A    between atoms: _61  and  _64
REMARK   31  A    between atoms: _64  and  _65
REMARK   32  A    between atoms: _65  and  _66
REMARK   33  A    between atoms: _66  and  _67
REMARK   34  A    between atoms: _76  and  _78
REMARK   35  A    between atoms: _78  and  _79
REMARK   36  A    between atoms: _78  and  _81
REMARK   37  A    between atoms: _81  and  _82
REMARK   38  A    between atoms: _85  and  _87
REMARK   39  A    between atoms: _87  and  _88
REMARK   40  A    between atoms: _87  and  _90
REMARK   41  A    between atoms: _90  and  _91
REMARK   42  A    between atoms: _94  and  _96
REMARK   43  A    between atoms: _96  and  _97
REMARK   44  A    between atoms: _96  and  _99
REMARK   45  A    between atoms: _99  and  _100
REMARK   46  A    between atoms: _106  and  _108
REMARK   47  A    between atoms: _108  and  _109
REMARK   48  A    between atoms: _108  and  _111
REMARK   49  A    between atoms: _111  and  _112
REMARK   50  A    between atoms: _117  and  _119
REMARK   51  A    between atoms: _119  and  _120
REMARK   52  A    between atoms: _123  and  _125
REMARK   53  A    between atoms: _125  and  _126
REMARK   54  A    between atoms: _129  and  _131
REMARK   55  A    between atoms: _131  and  _132
REMARK   56  A    between atoms: _131  and  _134
REMARK   57  A    between atoms: _134  and  _135
REMARK   58  A    between atoms: _138  and  _140
REMARK   59  A    between atoms: _140  and  _141
REMARK   60  A    between atoms: _143  and  _145
REMARK   61  A    between atoms: _145  and  _146
REMARK   62  A    between atoms: _145  and  _148
REMARK   63  A    between atoms: _150  and  _152
REMARK   64  A    between atoms: _152  and  _153
REMARK   65  A    between atoms: _152  and  _155
REMARK   66  A    between atoms: _155  and  _156
REMARK   67  A    between atoms: _156  and  _157
REMARK   68  A    between atoms: _157  and  _158
REMARK   69  A    between atoms: _167  and  _169
REMARK   70  A    between atoms: _169  and  _170
REMARK   71  A    between atoms: _169  and  _172
REMARK   72  A    between atoms: _172  and  _173
REMARK   73  A    between atoms: _176  and  _178
REMARK   74  A    between atoms: _178  and  _179
REMARK   75  A    between atoms: _178  and  _181
REMARK   76  A    between atoms: _181  and  _182
REMARK   77  A    between atoms: _184  and  _186
REMARK   78  A    between atoms: _186  and  _187
REMARK   79  A    between atoms: _186  and  _189
REMARK   80  A    between atoms: _189  and  _190
REMARK   81  A    between atoms: _193  and  _195
REMARK   82  A    between atoms: _195  and  _196
REMARK   83  A    between atoms: _195  and  _198
REMARK   84  A    between atoms: _198  and  _199
REMARK   85  A    between atoms: _199  and  _200
REMARK   86  A    between atoms: _200  and  _201
REMARK   87  A    between atoms: _211  and  _212
REMARK   88  A    between atoms: _217  and  _219
REMARK   89  A    between atoms: _219  and  _220
REMARK   90  A    between atoms: _219  and  _222
REMARK   91  A    between atoms: _222  and  _223
REMARK   92  A    between atoms: _223  and  _224
REMARK   93  A    between atoms: _224  and  _225
REMARK   94  A    between atoms: _234  and  _236
REMARK   95  A    between atoms: _236  and  _237
REMARK   96  A    between atoms: _236  and  _239
REMARK   97  A    between atoms: _242  and  _244
REMARK   98  A    between atoms: _244  and  _245
REMARK   99  A    between atoms: _244  and  _247
REMARK  100  A    between atoms: _250  and  _252
REMARK  101  A    between atoms: _252  and  _253
REMARK  102  A    between atoms: _252  and  _255
REMARK  103  A    between atoms: _255  and  _256
REMARK  104  A    between atoms: _256  and  _257
REMARK  105  A    between atoms: _259  and  _261
REMARK  106  A    between atoms: _261  and  _262
REMARK  107  A    between atoms: _265  and  _267
REMARK  108  A    between atoms: _267  and  _268
REMARK  109  A    between atoms: _267  and  _270
REMARK  110  A    between atoms: _270  and  _271
REMARK  111  A    between atoms: _273  and  _275
REMARK  112  A    between atoms: _275  and  _276
REMARK  113  A    between atoms: _279  and  _281
REMARK  114  A    between atoms: _281  and  _282
REMARK  115  A    between atoms: _281  and  _284
REMARK  116  A    between atoms: _284  and  _285
REMARK  117  A    between atoms: _285  and  _286
REMARK  118  A    between atoms: _291  and  _293
REMARK  119  A    between atoms: _293  and  _294
REMARK  120  A    between atoms: _293  and  _296
REMARK  121  A    between atoms: _299  and  _301
REMARK  122  A    between atoms: _301  and  _302
REMARK  123  A    between atoms: _301  and  _304
REMARK  124  A    between atoms: _304  and  _305
REMARK  125  A    between atoms: _305  and  _306
REMARK  126  A    between atoms: _306  and  _307
REMARK  127  A    between atoms: _307  and  _308
REMARK  128  A    between atoms: _312  and  _314
REMARK  129  A    between atoms: _314  and  _315
REMARK  130  A    between atoms: _314  and  _317
REMARK  131  A    between atoms: _317  and  _318
REMARK  132  A    between atoms: _320  and  _322
REMARK  133  A    between atoms: _322  and  _323
REMARK  134  A    between atoms: _326  and  _328
REMARK  135  A    between atoms: _328  and  _329
REMARK  136  A    between atoms: _328  and  _331
REMARK  137  A    between atoms: _331  and  _332
REMARK  138  A    between atoms: _335  and  _337
REMARK  139  A    between atoms: _337  and  _338
REMARK  140  A    between atoms: _337  and  _340
REMARK  141  A    between atoms: _340  and  _341
REMARK  142  A    between atoms: _341  and  _342
REMARK  143  A    between atoms: _342  and  _343
REMARK  144  A    between atoms: _352  and  _354
REMARK  145  A    between atoms: _354  and  _355
REMARK  146  A    between atoms: _354  and  _357
REMARK  147  A    between atoms: _357  and  _358
REMARK  148  A    between atoms: _361  and  _363
REMARK  149  A    between atoms: _363  and  _364
REMARK  150  A    between atoms: _363  and  _366
REMARK  151  A    between atoms: _366  and  _367
REMARK  152  A    between atoms: _372  and  _374
REMARK  153  A    between atoms: _374  and  _375
REMARK  154  A    between atoms: _374  and  _377
REMARK  155  A    between atoms: _377  and  _378
REMARK  156  A    between atoms: _381  and  _383
REMARK  157  A    between atoms: _383  and  _384
REMARK  158  A    between atoms: _383  and  _386
REMARK  159  A    between atoms: _386  and  _387
REMARK  160  A    between atoms: _390  and  _392
REMARK  161  A    between atoms: _392  and  _393
REMARK  162  A    between atoms: _392  and  _395
REMARK  163  A    between atoms: _395  and  _396
REMARK  164  A    between atoms: _398  and  _400
REMARK  165  A    between atoms: _400  and  _401
REMARK  166  A    between atoms: _400  and  _403
REMARK  167  A    between atoms: _403  and  _404
REMARK  168  A    between atoms: _404  and  _405
REMARK  169  A    between atoms: _405  and  _406
REMARK  170  A    between atoms: _415  and  _417
REMARK  171  A    between atoms: _417  and  _418
REMARK  172  A    between atoms: _422  and  _423
REMARK  173  A    between atoms: _428  and  _430
REMARK  174  A    between atoms: _430  and  _431
REMARK  175  A    between atoms: _430  and  _433
REMARK  176  A    between atoms: _433  and  _434
REMARK  177  A    between atoms: _434  and  _435
REMARK  178  A    between atoms: _437  and  _439
REMARK  179  A    between atoms: _439  and  _440
REMARK  180  A    between atoms: _439  and  _442
REMARK  181  A    between atoms: _442  and  _443
REMARK  182  A    between atoms: _446  and  _448
REMARK  183  A    between atoms: _448  and  _449
REMARK  184  A    between atoms: _448  and  _451
REMARK  185  A    between atoms: _451  and  _452
REMARK  186  A    between atoms: _455  and  _457
REMARK  187  A    between atoms: _457  and  _458
REMARK  188  A    between atoms: _457  and  _460
REMARK  189  A    between atoms: _460  and  _461
REMARK  190  A    between atoms: _461  and  _462
REMARK  191  A    between atoms: _465  and  _467
REMARK  192  A    between atoms: _467  and  _468
REMARK  193  A    between atoms: _467  and  _470
REMARK  194  A    between atoms: _470  and  _471
REMARK  195  A    between atoms: _471  and  _472
REMARK  196  A    between atoms: _475  and  _477
REMARK  197  A    between atoms: _477  and  _478
REMARK  198  A    between atoms: _477  and  _480
REMARK  199  A    between atoms: _480  and  _481
REMARK  200  A    between atoms: _484  and  _486
REMARK  201  A    between atoms: _486  and  _487
REMARK  202  A    between atoms: _486  and  _489
REMARK  203  A    between atoms: _492  and  _494
REMARK  204  A    between atoms: _494  and  _495
REMARK  205  A    between atoms: _494  and  _497
REMARK  206  A    between atoms: _497  and  _498
REMARK  207  A    between atoms: _498  and  _499
REMARK  208  A    between atoms: _499  and  _500
REMARK  209  A    between atoms: _500  and  _501
REMARK  210  A    between atoms: _505  and  _507
REMARK  211  A    between atoms: _507  and  _508
REMARK  212  A    between atoms: _507  and  _510
REMARK  213  A    between atoms: _510  and  _511
REMARK  214  A    between atoms: _511  and  _512
REMARK  215  A    between atoms: _515  and  _517
REMARK  216  A    between atoms: _517  and  _518
REMARK  217  A    between atoms: _517  and  _520
REMARK  218  A    between atoms: _520  and  _521
REMARK  219  A    between atoms: _523  and  _525
REMARK  220  A    between atoms: _525  and  _526
REMARK  221  A    between atoms: _525  and  _528
REMARK  222  A    between atoms: _528  and  _529
REMARK  223  A    between atoms: _529  and  _530
REMARK  224  A    between atoms: _530  and  _531
REMARK  225  A    between atoms: _540  and  _542
REMARK  226  A    between atoms: _542  and  _543
REMARK  227  A    between atoms: _542  and  _545
REMARK  228  A    between atoms: _545  and  _546
REMARK  229  A    between atoms: _549  and  _551
REMARK  230  A    between atoms: _551  and  _552
REMARK  231  A    between atoms: _551  and  _554
REMARK  232  A    between atoms: _554  and  _555
REMARK  233  A    between atoms: _560  and  _562
REMARK  234  A    between atoms: _562  and  _563
REMARK  235  A    between atoms: _562  and  _565
REMARK  236  A    between atoms: _565  and  _566
REMARK  237  A    between atoms: _566  and  _567
REMARK  238  A    between atoms: _567  and  _568
REMARK  239  A    between atoms: _577  and  _579
REMARK  240  A    between atoms: _579  and  _580
REMARK  241  A    between atoms: _579  and  _582
REMARK  242  A    between atoms: _582  and  _583
REMARK  243  A    between atoms: _586  and  _588
REMARK  244  A    between atoms: _588  and  _589
REMARK  245  A    between atoms: _588  and  _591
REMARK  246  A    between atoms: _591  and  _592
REMARK  247  A    between atoms: _595  and  _597
REMARK  248  A    between atoms: _597  and  _598
REMARK  249  A    between atoms: _597  and  _600
REMARK  250  A    between atoms: _600  and  _601
REMARK                            x       y       z     vdW  Elec       q    Type
REMARK                         _______ _______ _______ _____ _____    ______ ____
ROOT
ATOM      1  O   HOH     1    -125.894  28.067 121.741  0.00  0.00    +0.000 OA
ENDROOT
TORSDOF 0
REMARK  Name = ../refined-set-2016/2pqb/2pqb_pocket.pdb
REMARK  250 active torsions:
REMARK  status: ('A' for Active; 'I' for Inactive)
REMARK    1  A    between atoms: _1  and  _3
REMARK    2  A    between atoms: _3  and  _4
REMARK    3  A    between atoms: _3  and  _6
REMARK    4  A    between atoms: _6  and  _7
REMARK    5  A    between atoms: _10  and  _12
REMARK    6  A    between atoms: _12  and  _13
REMARK    7  A    between atoms: _12  and  _15
REMARK    8  A    between atoms: _15  and  _16
REMARK    9  A    between atoms: _16  and  _17
REMARK   10  A    between atoms: _17  and  _18
REMARK   11  A    between atoms: _18  and  _19
REMARK   12  A    between atoms: _23  and  _25
REMARK   13  A    between atoms: _25  and  _26
REMARK   14  A    between atoms: _25  and  _28
REMARK   15  A    between atoms: _28  and  _29
REMARK   16  A    between atoms: _31  and  _33
REMARK   17  A    between atoms: _33  and  _34
REMARK   18  A    between atoms: _33  and  _36
REMARK   19  A    between atoms: _36  and  _37
REMARK   20  A    between atoms: _40  and  _42
REMARK   21  A    between atoms: _42  and  _43
REMARK   22  A    between atoms: _42  and  _45
REMARK   23  A    between atoms: _45  and  _46
REMARK   24  A    between atoms: _48  and  _50
REMARK   25  A    between atoms: _50  and  _51
REMARK   26  A    between atoms: _50  and  _53
REMARK   27  A    between atoms: _53  and  _54
REMARK   28  A    between atoms: _59  and  _61
REMARK   29  A    between atoms: _61  and  _62
REMARK   30  A    between atoms: _61  and  _64
REMARK   31  A    between atoms: _64  and  _65
REMARK   32  A    between atoms: _65  and  _66
REMARK   33  A    between atoms: _66  and  _67
REMARK   34  A    between atoms: _76  and  _78
REMARK   35  A    between atoms: _78  and  _79
REMARK   36  A    between atoms: _78  and  _81
REMARK   37  A    between atoms: _81  and  _82
REMARK   38  A    between atoms: _85  and  _87
REMARK   39  A    between atoms: _87  and  _88
REMARK   40  A    between atoms: _87  and  _90
REMARK   41  A    between atoms: _90  and  _91
REMARK   42  A    between atoms: _94  and  _96
REMARK   43  A    between atoms: _96  and  _97
REMARK   44  A    between atoms: _96  and  _99
REMARK   45  A    between atoms: _99  and  _100
REMARK   46  A    between atoms: _106  and  _108
REMARK   47  A    between atoms: _108  and  _109
REMARK   48  A    between atoms: _108  and  _111
REMARK   49  A    between atoms: _111  and  _112
REMARK   50  A    between atoms: _117  and  _119
REMARK   51  A    between atoms: _119  and  _120
REMARK   52  A    between atoms: _123  and  _125
REMARK   53  A    between atoms: _125  and  _126
REMARK   54  A    between atoms: _129  and  _131
REMARK   55  A    between atoms: _131  and  _132
REMARK   56  A    between atoms: _131  and  _134
REMARK   57  A    between atoms: _134  and  _135
REMARK   58  A    between atoms: _138  and  _140
REMARK   59  A    between atoms: _140  and  _141
REMARK   60  A    between atoms: _143  and  _145
REMARK   61  A    between atoms: _145  and  _146
REMARK   62  A    between atoms: _145  and  _148
REMARK   63  A    between atoms: _150  and  _152
REMARK   64  A    between atoms: _152  and  _153
REMARK   65  A    between atoms: _152  and  _155
REMARK   66  A    between atoms: _155  and  _156
REMARK   67  A    between atoms: _156  and  _157
REMARK   68  A    between atoms: _157  and  _158
REMARK   69  A    between atoms: _167  and  _169
REMARK   70  A    between atoms: _169  and  _170
REMARK   71  A    between atoms: _169  and  _172
REMARK   72  A    between atoms: _172  and  _173
REMARK   73  A    between atoms: _176  and  _178
REMARK   74  A    between atoms: _178  and  _179
REMARK   75  A    between atoms: _178  and  _181
REMARK   76  A    between atoms: _181  and  _182
REMARK   77  A    between atoms: _184  and  _186
REMARK   78  A    between atoms: _186  and  _187
REMARK   79  A    between atoms: _186  and  _189
REMARK   80  A    between atoms: _189  and  _190
REMARK   81  A    between atoms: _193  and  _195
REMARK   82  A    between atoms: _195  and  _196
REMARK   83  A    between atoms: _195  and  _198
REMARK   84  A    between atoms: _198  and  _199
REMARK   85  A    between atoms: _199  and  _200
REMARK   86  A    between atoms: _200  and  _201
REMARK   87  A    between atoms: _211  and  _212
REMARK   88  A    between atoms: _217  and  _219
REMARK   89  A    between atoms: _219  and  _220
REMARK   90  A    between atoms: _219  and  _222
REMARK   91  A    between atoms: _222  and  _223
REMARK   92  A    between atoms: _223  and  _224
REMARK   93  A    between atoms: _224  and  _225
REMARK   94  A    between atoms: _234  and  _236
REMARK   95  A    between atoms: _236  and  _237
REMARK   96  A    between atoms: _236  and  _239
REMARK   97  A    between atoms: _242  and  _244
REMARK   98  A    between atoms: _244  and  _245
REMARK   99  A    between atoms: _244  and  _247
REMARK  100  A    between atoms: _250  and  _252
REMARK  101  A    between atoms: _252  and  _253
REMARK  102  A    between atoms: _252  and  _255
REMARK  103  A    between atoms: _255  and  _256
REMARK  104  A    between atoms: _256  and  _257
REMARK  105  A    between atoms: _259  and  _261
REMARK  106  A    between atoms: _261  and  _262
REMARK  107  A    between atoms: _265  and  _267
REMARK  108  A    between atoms: _267  and  _268
REMARK  109  A    between atoms: _267  and  _270
REMARK  110  A    between atoms: _270  and  _271
REMARK  111  A    between atoms: _273  and  _275
REMARK  112  A    between atoms: _275  and  _276
REMARK  113  A    between atoms: _279  and  _281
REMARK  114  A    between atoms: _281  and  _282
REMARK  115  A    between atoms: _281  and  _284
REMARK  116  A    between atoms: _284  and  _285
REMARK  117  A    between atoms: _285  and  _286
REMARK  118  A    between atoms: _291  and  _293
REMARK  119  A    between atoms: _293  and  _294
REMARK  120  A    between atoms: _293  and  _296
REMARK  121  A    between atoms: _299  and  _301
REMARK  122  A    between atoms: _301  and  _302
REMARK  123  A    between atoms: _301  and  _304
REMARK  124  A    between atoms: _304  and  _305
REMARK  125  A    between atoms: _305  and  _306
REMARK  126  A    between atoms: _306  and  _307
REMARK  127  A    between atoms: _307  and  _308
REMARK  128  A    between atoms: _312  and  _314
REMARK  129  A    between atoms: _314  and  _315
REMARK  130  A    between atoms: _314  and  _317
REMARK  131  A    between atoms: _317  and  _318
REMARK  132  A    between atoms: _320  and  _322
REMARK  133  A    between atoms: _322  and  _323
REMARK  134  A    between atoms: _326  and  _328
REMARK  135  A    between atoms: _328  and  _329
REMARK  136  A    between atoms: _328  and  _331
REMARK  137  A    between atoms: _331  and  _332
REMARK  138  A    between atoms: _335  and  _337
REMARK  139  A    between atoms: _337  and  _338
REMARK  140  A    between atoms: _337  and  _340
REMARK  141  A    between atoms: _340  and  _341
REMARK  142  A    between atoms: _341  and  _342
REMARK  143  A    between atoms: _342  and  _343
REMARK  144  A    between atoms: _352  and  _354
REMARK  145  A    between atoms: _354  and  _355
REMARK  146  A    between atoms: _354  and  _357
REMARK  147  A    between atoms: _357  and  _358
REMARK  148  A    between atoms: _361  and  _363
REMARK  149  A    between atoms: _363  and  _364
REMARK  150  A    between atoms: _363  and  _366
REMARK  151  A    between atoms: _366  and  _367
REMARK  152  A    between atoms: _372  and  _374
REMARK  153  A    between atoms: _374  and  _375
REMARK  154  A    between atoms: _374  and  _377
REMARK  155  A    between atoms: _377  and  _378
REMARK  156  A    between atoms: _381  and  _383
REMARK  157  A    between atoms: _383  and  _384
REMARK  158  A    between atoms: _383  and  _386
REMARK  159  A    between atoms: _386  and  _387
REMARK  160  A    between atoms: _390  and  _392
REMARK  161  A    between atoms: _392  and  _393
REMARK  162  A    between atoms: _392  and  _395
REMARK  163  A    between atoms: _395  and  _396
REMARK  164  A    between atoms: _398  and  _400
REMARK  165  A    between atoms: _400  and  _401
REMARK  166  A    between atoms: _400  and  _403
REMARK  167  A    between atoms: _403  and  _404
REMARK  168  A    between atoms: _404  and  _405
REMARK  169  A    between atoms: _405  and  _406
REMARK  170  A    between atoms: _415  and  _417
REMARK  171  A    between atoms: _417  and  _418
REMARK  172  A    between atoms: _422  and  _423
REMARK  173  A    between atoms: _428  and  _430
REMARK  174  A    between atoms: _430  and  _431
REMARK  175  A    between atoms: _430  and  _433
REMARK  176  A    between atoms: _433  and  _434
REMARK  177  A    between atoms: _434  and  _435
REMARK  178  A    between atoms: _437  and  _439
REMARK  179  A    between atoms: _439  and  _440
REMARK  180  A    between atoms: _439  and  _442
REMARK  181  A    between atoms: _442  and  _443
REMARK  182  A    between atoms: _446  and  _448
REMARK  183  A    between atoms: _448  and  _449
REMARK  184  A    between atoms: _448  and  _451
REMARK  185  A    between atoms: _451  and  _452
REMARK  186  A    between atoms: _455  and  _457
REMARK  187  A    between atoms: _457  and  _458
REMARK  188  A    between atoms: _457  and  _460
REMARK  189  A    between atoms: _460  and  _461
REMARK  190  A    between atoms: _461  and  _462
REMARK  191  A    between atoms: _465  and  _467
REMARK  192  A    between atoms: _467  and  _468
REMARK  193  A    between atoms: _467  and  _470
REMARK  194  A    between atoms: _470  and  _471
REMARK  195  A    between atoms: _471  and  _472
REMARK  196  A    between atoms: _475  and  _477
REMARK  197  A    between atoms: _477  and  _478
REMARK  198  A    between atoms: _477  and  _480
REMARK  199  A    between atoms: _480  and  _481
REMARK  200  A    between atoms: _484  and  _486
REMARK  201  A    between atoms: _486  and  _487
REMARK  202  A    between atoms: _486  and  _489
REMARK  203  A    between atoms: _492  and  _494
REMARK  204  A    between atoms: _494  and  _495
REMARK  205  A    between atoms: _494  and  _497
REMARK  206  A    between atoms: _497  and  _498
REMARK  207  A    between atoms: _498  and  _499
REMARK  208  A    between atoms: _499  and  _500
REMARK  209  A    between atoms: _500  and  _501
REMARK  210  A    between atoms: _505  and  _507
REMARK  211  A    between atoms: _507  and  _508
REMARK  212  A    between atoms: _507  and  _510
REMARK  213  A    between atoms: _510  and  _511
REMARK  214  A    between atoms: _511  and  _512
REMARK  215  A    between atoms: _515  and  _517
REMARK  216  A    between atoms: _517  and  _518
REMARK  217  A    between atoms: _517  and  _520
REMARK  218  A    between atoms: _520  and  _521
REMARK  219  A    between atoms: _523  and  _525
REMARK  220  A    between atoms: _525  and  _526
REMARK  221  A    between atoms: _525  and  _528
REMARK  222  A    between atoms: _528  and  _529
REMARK  223  A    between atoms: _529  and  _530
REMARK  224  A    between atoms: _530  and  _531
REMARK  225  A    between atoms: _540  and  _542
REMARK  226  A    between atoms: _542  and  _543
REMARK  227  A    between atoms: _542  and  _545
REMARK  228  A    between atoms: _545  and  _546
REMARK  229  A    between atoms: _549  and  _551
REMARK  230  A    between atoms: _551  and  _552
REMARK  231  A    between atoms: _551  and  _554
REMARK  232  A    between atoms: _554  and  _555
REMARK  233  A    between atoms: _560  and  _562
REMARK  234  A    between atoms: _562  and  _563
REMARK  235  A    between atoms: _562  and  _565
REMARK  236  A    between atoms: _565  and  _566
REMARK  237  A    between atoms: _566  and  _567
REMARK  238  A    between atoms: _567  and  _568
REMARK  239  A    between atoms: _577  and  _579
REMARK  240  A    between atoms: _579  and  _580
REMARK  241  A    between atoms: _579  and  _582
REMARK  242  A    between atoms: _582  and  _583
REMARK  243  A    between atoms: _586  and  _588
REMARK  244  A    between atoms: _588  and  _589
REMARK  245  A    between atoms: _588  and  _591
REMARK  246  A    between atoms: _591  and  _592
REMARK  247  A    between atoms: _595  and  _597
REMARK  248  A    between atoms: _597  and  _598
REMARK  249  A    between atoms: _597  and  _600
REMARK  250  A    between atoms: _600  and  _601
REMARK                            x       y       z     vdW  Elec       q    Type
REMARK                         _______ _______ _______ _____ _____    ______ ____
ROOT
ATOM      1  O   HOH     1    -128.642  23.249 134.673  0.00  0.00    +0.000 OA
ENDROOT
TORSDOF 0
