REMARK  Name = ../refined-set-2016/1i9l/1i9l_pocket.pdb
REMARK  144 active torsions:
REMARK  status: ('A' for Active; 'I' for Inactive)
REMARK    1  A    between atoms: _1  and  _3
REMARK    2  A    between atoms: _3  and  _4
REMARK    3  A    between atoms: _3  and  _6
REMARK    4  A    between atoms: _6  and  _7
REMARK    5  A    between atoms: _17  and  _19
REMARK    6  A    between atoms: _19  and  _20
REMARK    7  A    between atoms: _19  and  _22
REMARK    8  A    between atoms: _22  and  _23
REMARK    9  A    between atoms: _28  and  _29
REMARK   10  A    between atoms: _31  and  _33
REMARK   11  A    between atoms: _33  and  _34
REMARK   12  A    between atoms: _33  and  _36
REMARK   13  A    between atoms: _36  and  _37
REMARK   14  A    between atoms: _40  and  _41
REMARK   15  A    between atoms: _46  and  _48
REMARK   16  A    between atoms: _48  and  _49
REMARK   17  A    between atoms: _48  and  _51
REMARK   18  A    between atoms: _51  and  _52
REMARK   19  A    between atoms: _57  and  _59
REMARK   20  A    between atoms: _59  and  _60
REMARK   21  A    between atoms: _63  and  _65
REMARK   22  A    between atoms: _65  and  _66
REMARK   23  A    between atoms: _65  and  _68
REMARK   24  A    between atoms: _68  and  _69
REMARK   25  A    between atoms: _74  and  _76
REMARK   26  A    between atoms: _76  and  _77
REMARK   27  A    between atoms: _76  and  _79
REMARK   28  A    between atoms: _79  and  _80
REMARK   29  A    between atoms: _83  and  _85
REMARK   30  A    between atoms: _85  and  _86
REMARK   31  A    between atoms: _85  and  _88
REMARK   32  A    between atoms: _88  and  _89
REMARK   33  A    between atoms: _89  and  _90
REMARK   34  A    between atoms: _95  and  _97
REMARK   35  A    between atoms: _97  and  _98
REMARK   36  A    between atoms: _97  and  _100
REMARK   37  A    between atoms: _100  and  _101
REMARK   38  A    between atoms: _107  and  _109
REMARK   39  A    between atoms: _120  and  _123
REMARK   40  A    between atoms: _123  and  _124
REMARK   41  A    between atoms: _132  and  _133
REMARK   42  A    between atoms: _141  and  _143
REMARK   43  A    between atoms: _143  and  _144
REMARK   44  A    between atoms: _143  and  _146
REMARK   45  A    between atoms: _146  and  _147
REMARK   46  A    between atoms: _147  and  _148
REMARK   47  A    between atoms: _151  and  _153
REMARK   48  A    between atoms: _153  and  _154
REMARK   49  A    between atoms: _153  and  _156
REMARK   50  A    between atoms: _156  and  _157
REMARK   51  A    between atoms: _162  and  _164
REMARK   52  A    between atoms: _164  and  _165
REMARK   53  A    between atoms: _164  and  _167
REMARK   54  A    between atoms: _167  and  _168
REMARK   55  A    between atoms: _168  and  _169
REMARK   56  A    between atoms: _172  and  _174
REMARK   57  A    between atoms: _174  and  _175
REMARK   58  A    between atoms: _174  and  _177
REMARK   59  A    between atoms: _177  and  _178
REMARK   60  A    between atoms: _181  and  _183
REMARK   61  A    between atoms: _183  and  _184
REMARK   62  A    between atoms: _183  and  _186
REMARK   63  A    between atoms: _186  and  _187
REMARK   64  A    between atoms: _188  and  ZN_404
REMARK   65  A    between atoms: _192  and  _194
REMARK   66  A    between atoms: _194  and  _195
REMARK   67  A    between atoms: _194  and  _197
REMARK   68  A    between atoms: _197  and  _198
REMARK   69  A    between atoms: _201  and  _203
REMARK   70  A    between atoms: _203  and  _204
REMARK   71  A    between atoms: _203  and  _206
REMARK   72  A    between atoms: _209  and  _211
REMARK   73  A    between atoms: _211  and  _212
REMARK   74  A    between atoms: _211  and  _214
REMARK   75  A    between atoms: _214  and  _215
REMARK   76  A    between atoms: _220  and  _222
REMARK   77  A    between atoms: _222  and  _223
REMARK   78  A    between atoms: _222  and  _225
REMARK   79  A    between atoms: _228  and  _230
REMARK   80  A    between atoms: _230  and  _231
REMARK   81  A    between atoms: _233  and  _235
REMARK   82  A    between atoms: _235  and  _236
REMARK   83  A    between atoms: _235  and  _238
REMARK   84  A    between atoms: _241  and  _243
REMARK   85  A    between atoms: _243  and  _244
REMARK   86  A    between atoms: _243  and  _246
REMARK   87  A    between atoms: _246  and  _247
REMARK   88  A    between atoms: _247  and  _248
REMARK   89  A    between atoms: _253  and  _255
REMARK   90  A    between atoms: _255  and  _256
REMARK   91  A    between atoms: _255  and  _258
REMARK   92  A    between atoms: _258  and  _259
REMARK   93  A    between atoms: _262  and  _264
REMARK   94  A    between atoms: _264  and  _265
REMARK   95  A    between atoms: _268  and  _270
REMARK   96  A    between atoms: _270  and  _271
REMARK   97  A    between atoms: _270  and  _273
REMARK   98  A    between atoms: _276  and  _278
REMARK   99  A    between atoms: _278  and  _279
REMARK  100  A    between atoms: _278  and  _281
REMARK  101  A    between atoms: _281  and  _282
REMARK  102  A    between atoms: _285  and  _287
REMARK  103  A    between atoms: _287  and  _288
REMARK  104  A    between atoms: _287  and  _290
REMARK  105  A    between atoms: _290  and  _291
REMARK  106  A    between atoms: _293  and  _295
REMARK  107  A    between atoms: _295  and  _296
REMARK  108  A    between atoms: _295  and  _298
REMARK  109  A    between atoms: _298  and  _299
REMARK  110  A    between atoms: _302  and  _304
REMARK  111  A    between atoms: _304  and  _305
REMARK  112  A    between atoms: _304  and  _307
REMARK  113  A    between atoms: _307  and  _308
REMARK  114  A    between atoms: _311  and  _313
REMARK  115  A    between atoms: _313  and  _314
REMARK  116  A    between atoms: _313  and  _316
REMARK  117  A    between atoms: _316  and  _317
REMARK  118  A    between atoms: _321  and  _322
REMARK  119  A    between atoms: _328  and  _329
REMARK  120  A    between atoms: _334  and  _336
REMARK  121  A    between atoms: _336  and  _337
REMARK  122  A    between atoms: _336  and  _339
REMARK  123  A    between atoms: _339  and  _340
REMARK  124  A    between atoms: _343  and  _345
REMARK  125  A    between atoms: _345  and  _346
REMARK  126  A    between atoms: _345  and  _348
REMARK  127  A    between atoms: _348  and  _349
REMARK  128  A    between atoms: _352  and  _354
REMARK  129  A    between atoms: _354  and  _355
REMARK  130  A    between atoms: _354  and  _357
REMARK  131  A    between atoms: _360  and  _362
REMARK  132  A    between atoms: _362  and  _363
REMARK  133  A    between atoms: _362  and  _365
REMARK  134  A    between atoms: _365  and  _366
REMARK  135  A    between atoms: _376  and  _378
REMARK  136  A    between atoms: _378  and  _379
REMARK  137  A    between atoms: _378  and  _381
REMARK  138  A    between atoms: _381  and  _382
REMARK  139  A    between atoms: _387  and  _389
REMARK  140  A    between atoms: _389  and  _390
REMARK  141  A    between atoms: _389  and  _392
REMARK  142  A    between atoms: _392  and  _393
REMARK  143  A    between atoms: _393  and  _394
REMARK  144  A    between atoms: _394  and  _395
REMARK                            x       y       z     vdW  Elec       q    Type
REMARK                         _______ _______ _______ _____ _____    ______ ____
ROOT
ATOM      1  CG  TRP A   1       5.414  -0.533  12.268  0.00  0.00    -0.002 A 
ATOM      2  CD2 TRP A   1       4.049  -0.995  12.210  0.00  0.00    +0.013 A 
ATOM      3  CE3 TRP A   1       3.434  -2.241  12.407  0.00  0.00    +0.001 A 
ATOM      4  CZ3 TRP A   1       2.051  -2.335  12.256  0.00  0.00    +0.000 A 
ATOM      5  CH2 TRP A   1       1.279  -1.203  11.916  0.00  0.00    +0.001 A 
ATOM      6  CZ2 TRP A   1       1.853   0.027  11.722  0.00  0.00    +0.017 A 
ATOM      7  CE2 TRP A   1       3.242   0.123  11.869  0.00  0.00    +0.056 A 
ATOM      8  NE1 TRP A   1       4.074   1.209  11.729  0.00  0.00    -0.352 N 
ATOM      9  HE1 TRP A   1       3.771   2.173  11.484  0.00  0.00    +0.166 HD
ATOM     10  CD1 TRP A   1       5.378   0.814  11.966  0.00  0.00    +0.068 A 
ENDROOT
BRANCH   1  11
ATOM     11  CB  TRP A   1       6.637  -1.359  12.606  0.00  0.00    +0.053 C 
BRANCH  11  12
ATOM     12  CA  TRP A   1       7.392  -1.916  11.381  0.00  0.00    +0.137 C 
BRANCH  12  13
ATOM     13  N   TRP A   1       7.955  -0.828  10.585  0.00  0.00    -0.239 NA
ATOM     14  H   TRP A   1       7.657   0.152  10.766  0.00  0.00    +0.142 HD
ENDBRANCH  12  13
BRANCH  12  15
ATOM     15  C   TRP A   1       6.489  -2.827  10.555  0.00  0.00    +0.224 C 
ATOM     16  O   TRP A   1       6.040  -2.452   9.448  0.00  0.00    -0.287 OA
ENDBRANCH  12  15
ENDBRANCH  11  12
ENDBRANCH   1  11
TORSDOF 4
REMARK  Name = ../refined-set-2016/1i9l/1i9l_pocket.pdb
REMARK  144 active torsions:
REMARK  status: ('A' for Active; 'I' for Inactive)
REMARK    1  A    between atoms: _1  and  _3
REMARK    2  A    between atoms: _3  and  _4
REMARK    3  A    between atoms: _3  and  _6
REMARK    4  A    between atoms: _6  and  _7
REMARK    5  A    between atoms: _17  and  _19
REMARK    6  A    between atoms: _19  and  _20
REMARK    7  A    between atoms: _19  and  _22
REMARK    8  A    between atoms: _22  and  _23
REMARK    9  A    between atoms: _28  and  _29
REMARK   10  A    between atoms: _31  and  _33
REMARK   11  A    between atoms: _33  and  _34
REMARK   12  A    between atoms: _33  and  _36
REMARK   13  A    between atoms: _36  and  _37
REMARK   14  A    between atoms: _40  and  _41
REMARK   15  A    between atoms: _46  and  _48
REMARK   16  A    between atoms: _48  and  _49
REMARK   17  A    between atoms: _48  and  _51
REMARK   18  A    between atoms: _51  and  _52
REMARK   19  A    between atoms: _57  and  _59
REMARK   20  A    between atoms: _59  and  _60
REMARK   21  A    between atoms: _63  and  _65
REMARK   22  A    between atoms: _65  and  _66
REMARK   23  A    between atoms: _65  and  _68
REMARK   24  A    between atoms: _68  and  _69
REMARK   25  A    between atoms: _74  and  _76
REMARK   26  A    between atoms: _76  and  _77
REMARK   27  A    between atoms: _76  and  _79
REMARK   28  A    between atoms: _79  and  _80
REMARK   29  A    between atoms: _83  and  _85
REMARK   30  A    between atoms: _85  and  _86
REMARK   31  A    between atoms: _85  and  _88
REMARK   32  A    between atoms: _88  and  _89
REMARK   33  A    between atoms: _89  and  _90
REMARK   34  A    between atoms: _95  and  _97
REMARK   35  A    between atoms: _97  and  _98
REMARK   36  A    between atoms: _97  and  _100
REMARK   37  A    between atoms: _100  and  _101
REMARK   38  A    between atoms: _107  and  _109
REMARK   39  A    between atoms: _120  and  _123
REMARK   40  A    between atoms: _123  and  _124
REMARK   41  A    between atoms: _132  and  _133
REMARK   42  A    between atoms: _141  and  _143
REMARK   43  A    between atoms: _143  and  _144
REMARK   44  A    between atoms: _143  and  _146
REMARK   45  A    between atoms: _146  and  _147
REMARK   46  A    between atoms: _147  and  _148
REMARK   47  A    between atoms: _151  and  _153
REMARK   48  A    between atoms: _153  and  _154
REMARK   49  A    between atoms: _153  and  _156
REMARK   50  A    between atoms: _156  and  _157
REMARK   51  A    between atoms: _162  and  _164
REMARK   52  A    between atoms: _164  and  _165
REMARK   53  A    between atoms: _164  and  _167
REMARK   54  A    between atoms: _167  and  _168
REMARK   55  A    between atoms: _168  and  _169
REMARK   56  A    between atoms: _172  and  _174
REMARK   57  A    between atoms: _174  and  _175
REMARK   58  A    between atoms: _174  and  _177
REMARK   59  A    between atoms: _177  and  _178
REMARK   60  A    between atoms: _181  and  _183
REMARK   61  A    between atoms: _183  and  _184
REMARK   62  A    between atoms: _183  and  _186
REMARK   63  A    between atoms: _186  and  _187
REMARK   64  A    between atoms: _188  and  ZN_404
REMARK   65  A    between atoms: _192  and  _194
REMARK   66  A    between atoms: _194  and  _195
REMARK   67  A    between atoms: _194  and  _197
REMARK   68  A    between atoms: _197  and  _198
REMARK   69  A    between atoms: _201  and  _203
REMARK   70  A    between atoms: _203  and  _204
REMARK   71  A    between atoms: _203  and  _206
REMARK   72  A    between atoms: _209  and  _211
REMARK   73  A    between atoms: _211  and  _212
REMARK   74  A    between atoms: _211  and  _214
REMARK   75  A    between atoms: _214  and  _215
REMARK   76  A    between atoms: _220  and  _222
REMARK   77  A    between atoms: _222  and  _223
REMARK   78  A    between atoms: _222  and  _225
REMARK   79  A    between atoms: _228  and  _230
REMARK   80  A    between atoms: _230  and  _231
REMARK   81  A    between atoms: _233  and  _235
REMARK   82  A    between atoms: _235  and  _236
REMARK   83  A    between atoms: _235  and  _238
REMARK   84  A    between atoms: _241  and  _243
REMARK   85  A    between atoms: _243  and  _244
REMARK   86  A    between atoms: _243  and  _246
REMARK   87  A    between atoms: _246  and  _247
REMARK   88  A    between atoms: _247  and  _248
REMARK   89  A    between atoms: _253  and  _255
REMARK   90  A    between atoms: _255  and  _256
REMARK   91  A    between atoms: _255  and  _258
REMARK   92  A    between atoms: _258  and  _259
REMARK   93  A    between atoms: _262  and  _264
REMARK   94  A    between atoms: _264  and  _265
REMARK   95  A    between atoms: _268  and  _270
REMARK   96  A    between atoms: _270  and  _271
REMARK   97  A    between atoms: _270  and  _273
REMARK   98  A    between atoms: _276  and  _278
REMARK   99  A    between atoms: _278  and  _279
REMARK  100  A    between atoms: _278  and  _281
REMARK  101  A    between atoms: _281  and  _282
REMARK  102  A    between atoms: _285  and  _287
REMARK  103  A    between atoms: _287  and  _288
REMARK  104  A    between atoms: _287  and  _290
REMARK  105  A    between atoms: _290  and  _291
REMARK  106  A    between atoms: _293  and  _295
REMARK  107  A    between atoms: _295  and  _296
REMARK  108  A    between atoms: _295  and  _298
REMARK  109  A    between atoms: _298  and  _299
REMARK  110  A    between atoms: _302  and  _304
REMARK  111  A    between atoms: _304  and  _305
REMARK  112  A    between atoms: _304  and  _307
REMARK  113  A    between atoms: _307  and  _308
REMARK  114  A    between atoms: _311  and  _313
REMARK  115  A    between atoms: _313  and  _314
REMARK  116  A    between atoms: _313  and  _316
REMARK  117  A    between atoms: _316  and  _317
REMARK  118  A    between atoms: _321  and  _322
REMARK  119  A    between atoms: _328  and  _329
REMARK  120  A    between atoms: _334  and  _336
REMARK  121  A    between atoms: _336  and  _337
REMARK  122  A    between atoms: _336  and  _339
REMARK  123  A    between atoms: _339  and  _340
REMARK  124  A    between atoms: _343  and  _345
REMARK  125  A    between atoms: _345  and  _346
REMARK  126  A    between atoms: _345  and  _348
REMARK  127  A    between atoms: _348  and  _349
REMARK  128  A    between atoms: _352  and  _354
REMARK  129  A    between atoms: _354  and  _355
REMARK  130  A    between atoms: _354  and  _357
REMARK  131  A    between atoms: _360  and  _362
REMARK  132  A    between atoms: _362  and  _363
REMARK  133  A    between atoms: _362  and  _365
REMARK  134  A    between atoms: _365  and  _366
REMARK  135  A    between atoms: _376  and  _378
REMARK  136  A    between atoms: _378  and  _379
REMARK  137  A    between atoms: _378  and  _381
REMARK  138  A    between atoms: _381  and  _382
REMARK  139  A    between atoms: _387  and  _389
REMARK  140  A    between atoms: _389  and  _390
REMARK  141  A    between atoms: _389  and  _392
REMARK  142  A    between atoms: _392  and  _393
REMARK  143  A    between atoms: _393  and  _394
REMARK  144  A    between atoms: _394  and  _395
REMARK                            x       y       z     vdW  Elec       q    Type
REMARK                         _______ _______ _______ _____ _____    ______ ____
ROOT
ATOM      1  CG  TYR A   1       1.836  -7.640  12.209  0.00  0.00    -0.020 A 
ATOM      2  CD2 TYR A   1       1.437  -7.633  13.542  0.00  0.00    -0.001 A 
ATOM      3  CE2 TYR A   1       0.627  -6.628  14.042  0.00  0.00    +0.036 A 
ATOM      4  CZ  TYR A   1       0.204  -5.615  13.204  0.00  0.00    +0.134 A 
ATOM      5  CE1 TYR A   1       0.584  -5.602  11.861  0.00  0.00    +0.036 A 
ATOM      6  CD1 TYR A   1       1.396  -6.611  11.378  0.00  0.00    -0.001 A 
ENDROOT
BRANCH   4   7
ATOM      7  OH  TYR A   1      -0.557  -4.603  13.727  0.00  0.00    -0.506 OA
ATOM      8  HH  TYR A   1      -0.727  -4.781  14.686  0.00  0.00    +0.292 HD
ENDBRANCH   4   7
BRANCH   1   9
ATOM      9  CB  TYR A   1       2.747  -8.728  11.687  0.00  0.00    +0.051 C 
BRANCH   9  10
ATOM     10  CA  TYR A   1       4.236  -8.377  11.809  0.00  0.00    +0.137 C 
BRANCH  10  11
ATOM     11  N   TYR A   1       4.585  -7.245  10.954  0.00  0.00    -0.239 NA
ATOM     12  H   TYR A   1       4.480  -7.334   9.923  0.00  0.00    +0.142 HD
ENDBRANCH  10  11
BRANCH  10  13
ATOM     13  C   TYR A   1       5.105  -9.568  11.444  0.00  0.00    +0.224 C 
ATOM     14  O   TYR A   1       4.785 -10.714  11.762  0.00  0.00    -0.287 OA
ENDBRANCH  10  13
ENDBRANCH   9  10
ENDBRANCH   1   9
TORSDOF 5
REMARK  Name = ../refined-set-2016/1i9l/1i9l_pocket.pdb
REMARK  144 active torsions:
REMARK  status: ('A' for Active; 'I' for Inactive)
REMARK    1  A    between atoms: _1  and  _3
REMARK    2  A    between atoms: _3  and  _4
REMARK    3  A    between atoms: _3  and  _6
REMARK    4  A    between atoms: _6  and  _7
REMARK    5  A    between atoms: _17  and  _19
REMARK    6  A    between atoms: _19  and  _20
REMARK    7  A    between atoms: _19  and  _22
REMARK    8  A    between atoms: _22  and  _23
REMARK    9  A    between atoms: _28  and  _29
REMARK   10  A    between atoms: _31  and  _33
REMARK   11  A    between atoms: _33  and  _34
REMARK   12  A    between atoms: _33  and  _36
REMARK   13  A    between atoms: _36  and  _37
REMARK   14  A    between atoms: _40  and  _41
REMARK   15  A    between atoms: _46  and  _48
REMARK   16  A    between atoms: _48  and  _49
REMARK   17  A    between atoms: _48  and  _51
REMARK   18  A    between atoms: _51  and  _52
REMARK   19  A    between atoms: _57  and  _59
REMARK   20  A    between atoms: _59  and  _60
REMARK   21  A    between atoms: _63  and  _65
REMARK   22  A    between atoms: _65  and  _66
REMARK   23  A    between atoms: _65  and  _68
REMARK   24  A    between atoms: _68  and  _69
REMARK   25  A    between atoms: _74  and  _76
REMARK   26  A    between atoms: _76  and  _77
REMARK   27  A    between atoms: _76  and  _79
REMARK   28  A    between atoms: _79  and  _80
REMARK   29  A    between atoms: _83  and  _85
REMARK   30  A    between atoms: _85  and  _86
REMARK   31  A    between atoms: _85  and  _88
REMARK   32  A    between atoms: _88  and  _89
REMARK   33  A    between atoms: _89  and  _90
REMARK   34  A    between atoms: _95  and  _97
REMARK   35  A    between atoms: _97  and  _98
REMARK   36  A    between atoms: _97  and  _100
REMARK   37  A    between atoms: _100  and  _101
REMARK   38  A    between atoms: _107  and  _109
REMARK   39  A    between atoms: _120  and  _123
REMARK   40  A    between atoms: _123  and  _124
REMARK   41  A    between atoms: _132  and  _133
REMARK   42  A    between atoms: _141  and  _143
REMARK   43  A    between atoms: _143  and  _144
REMARK   44  A    between atoms: _143  and  _146
REMARK   45  A    between atoms: _146  and  _147
REMARK   46  A    between atoms: _147  and  _148
REMARK   47  A    between atoms: _151  and  _153
REMARK   48  A    between atoms: _153  and  _154
REMARK   49  A    between atoms: _153  and  _156
REMARK   50  A    between atoms: _156  and  _157
REMARK   51  A    between atoms: _162  and  _164
REMARK   52  A    between atoms: _164  and  _165
REMARK   53  A    between atoms: _164  and  _167
REMARK   54  A    between atoms: _167  and  _168
REMARK   55  A    between atoms: _168  and  _169
REMARK   56  A    between atoms: _172  and  _174
REMARK   57  A    between atoms: _174  and  _175
REMARK   58  A    between atoms: _174  and  _177
REMARK   59  A    between atoms: _177  and  _178
REMARK   60  A    between atoms: _181  and  _183
REMARK   61  A    between atoms: _183  and  _184
REMARK   62  A    between atoms: _183  and  _186
REMARK   63  A    between atoms: _186  and  _187
REMARK   64  A    between atoms: _188  and  ZN_404
REMARK   65  A    between atoms: _192  and  _194
REMARK   66  A    between atoms: _194  and  _195
REMARK   67  A    between atoms: _194  and  _197
REMARK   68  A    between atoms: _197  and  _198
REMARK   69  A    between atoms: _201  and  _203
REMARK   70  A    between atoms: _203  and  _204
REMARK   71  A    between atoms: _203  and  _206
REMARK   72  A    between atoms: _209  and  _211
REMARK   73  A    between atoms: _211  and  _212
REMARK   74  A    between atoms: _211  and  _214
REMARK   75  A    between atoms: _214  and  _215
REMARK   76  A    between atoms: _220  and  _222
REMARK   77  A    between atoms: _222  and  _223
REMARK   78  A    between atoms: _222  and  _225
REMARK   79  A    between atoms: _228  and  _230
REMARK   80  A    between atoms: _230  and  _231
REMARK   81  A    between atoms: _233  and  _235
REMARK   82  A    between atoms: _235  and  _236
REMARK   83  A    between atoms: _235  and  _238
REMARK   84  A    between atoms: _241  and  _243
REMARK   85  A    between atoms: _243  and  _244
REMARK   86  A    between atoms: _243  and  _246
REMARK   87  A    between atoms: _246  and  _247
REMARK   88  A    between atoms: _247  and  _248
REMARK   89  A    between atoms: _253  and  _255
REMARK   90  A    between atoms: _255  and  _256
REMARK   91  A    between atoms: _255  and  _258
REMARK   92  A    between atoms: _258  and  _259
REMARK   93  A    between atoms: _262  and  _264
REMARK   94  A    between atoms: _264  and  _265
REMARK   95  A    between atoms: _268  and  _270
REMARK   96  A    between atoms: _270  and  _271
REMARK   97  A    between atoms: _270  and  _273
REMARK   98  A    between atoms: _276  and  _278
REMARK   99  A    between atoms: _278  and  _279
REMARK  100  A    between atoms: _278  and  _281
REMARK  101  A    between atoms: _281  and  _282
REMARK  102  A    between atoms: _285  and  _287
REMARK  103  A    between atoms: _287  and  _288
REMARK  104  A    between atoms: _287  and  _290
REMARK  105  A    between atoms: _290  and  _291
REMARK  106  A    between atoms: _293  and  _295
REMARK  107  A    between atoms: _295  and  _296
REMARK  108  A    between atoms: _295  and  _298
REMARK  109  A    between atoms: _298  and  _299
REMARK  110  A    between atoms: _302  and  _304
REMARK  111  A    between atoms: _304  and  _305
REMARK  112  A    between atoms: _304  and  _307
REMARK  113  A    between atoms: _307  and  _308
REMARK  114  A    between atoms: _311  and  _313
REMARK  115  A    between atoms: _313  and  _314
REMARK  116  A    between atoms: _313  and  _316
REMARK  117  A    between atoms: _316  and  _317
REMARK  118  A    between atoms: _321  and  _322
REMARK  119  A    between atoms: _328  and  _329
REMARK  120  A    between atoms: _334  and  _336
REMARK  121  A    between atoms: _336  and  _337
REMARK  122  A    between atoms: _336  and  _339
REMARK  123  A    between atoms: _339  and  _340
REMARK  124  A    between atoms: _343  and  _345
REMARK  125  A    between atoms: _345  and  _346
REMARK  126  A    between atoms: _345  and  _348
REMARK  127  A    between atoms: _348  and  _349
REMARK  128  A    between atoms: _352  and  _354
REMARK  129  A    between atoms: _354  and  _355
REMARK  130  A    between atoms: _354  and  _357
REMARK  131  A    between atoms: _360  and  _362
REMARK  132  A    between atoms: _362  and  _363
REMARK  133  A    between atoms: _362  and  _365
REMARK  134  A    between atoms: _365  and  _366
REMARK  135  A    between atoms: _376  and  _378
REMARK  136  A    between atoms: _378  and  _379
REMARK  137  A    between atoms: _378  and  _381
REMARK  138  A    between atoms: _381  and  _382
REMARK  139  A    between atoms: _387  and  _389
REMARK  140  A    between atoms: _389  and  _390
REMARK  141  A    between atoms: _389  and  _392
REMARK  142  A    between atoms: _392  and  _393
REMARK  143  A    between atoms: _393  and  _394
REMARK  144  A    between atoms: _394  and  _395
REMARK                            x       y       z     vdW  Elec       q    Type
REMARK                         _______ _______ _______ _____ _____    ______ ____
ROOT
ATOM      1  C   SER A   1      -2.537  -3.692  23.743  0.00  0.00    +0.244 C 
ATOM      2  N   PRO A   2      -3.194  -4.837  23.474  0.00  0.00    -0.273 N 
ATOM      3  CA  PRO A   2      -4.398  -5.317  24.160  0.00  0.00    +0.140 C 
ATOM      4  CB  PRO A   2      -5.022  -6.241  23.129  0.00  0.00    +0.030 C 
ATOM      5  CG  PRO A   2      -3.809  -6.909  22.569  0.00  0.00    +0.024 C 
ATOM      6  CD  PRO A   2      -2.849  -5.742  22.366  0.00  0.00    +0.094 C 
ATOM      7  O   SER A   1      -1.562  -3.319  23.078  0.00  0.00    -0.273 OA
ENDROOT
BRANCH   3   8
ATOM      8  C   PRO A   2      -3.965  -6.108  25.382  0.00  0.00    +0.227 C 
ATOM      9  O   PRO A   2      -2.776  -6.308  25.589  0.00  0.00    -0.286 OA
ENDBRANCH   3   8
BRANCH   1  10
ATOM     10  CA  SER A   1      -3.089  -2.806  24.863  0.00  0.00    +0.175 C 
BRANCH  10  11
ATOM     11  N   SER A   1      -2.059  -1.861  25.270  0.00  0.00    -0.236 NA
ATOM     12  H   SER A   1      -1.645  -1.231  24.553  0.00  0.00    +0.142 HD
ENDBRANCH  10  11
BRANCH  10  13
ATOM     13  CB  SER A   1      -4.324  -2.055  24.340  0.00  0.00    +0.163 C 
BRANCH  13  14
ATOM     14  OG  SER A   1      -4.909  -1.213  25.330  0.00  0.00    -0.380 OA
ATOM     15  H   SER A   1      -5.190  -1.762  26.104  0.00  0.00    +0.211 HD
ENDBRANCH  13  14
ENDBRANCH  10  13
ENDBRANCH   1  10
TORSDOF 5
REMARK  Name = ../refined-set-2016/1i9l/1i9l_pocket.pdb
REMARK  144 active torsions:
REMARK  status: ('A' for Active; 'I' for Inactive)
REMARK    1  A    between atoms: _1  and  _3
REMARK    2  A    between atoms: _3  and  _4
REMARK    3  A    between atoms: _3  and  _6
REMARK    4  A    between atoms: _6  and  _7
REMARK    5  A    between atoms: _17  and  _19
REMARK    6  A    between atoms: _19  and  _20
REMARK    7  A    between atoms: _19  and  _22
REMARK    8  A    between atoms: _22  and  _23
REMARK    9  A    between atoms: _28  and  _29
REMARK   10  A    between atoms: _31  and  _33
REMARK   11  A    between atoms: _33  and  _34
REMARK   12  A    between atoms: _33  and  _36
REMARK   13  A    between atoms: _36  and  _37
REMARK   14  A    between atoms: _40  and  _41
REMARK   15  A    between atoms: _46  and  _48
REMARK   16  A    between atoms: _48  and  _49
REMARK   17  A    between atoms: _48  and  _51
REMARK   18  A    between atoms: _51  and  _52
REMARK   19  A    between atoms: _57  and  _59
REMARK   20  A    between atoms: _59  and  _60
REMARK   21  A    between atoms: _63  and  _65
REMARK   22  A    between atoms: _65  and  _66
REMARK   23  A    between atoms: _65  and  _68
REMARK   24  A    between atoms: _68  and  _69
REMARK   25  A    between atoms: _74  and  _76
REMARK   26  A    between atoms: _76  and  _77
REMARK   27  A    between atoms: _76  and  _79
REMARK   28  A    between atoms: _79  and  _80
REMARK   29  A    between atoms: _83  and  _85
REMARK   30  A    between atoms: _85  and  _86
REMARK   31  A    between atoms: _85  and  _88
REMARK   32  A    between atoms: _88  and  _89
REMARK   33  A    between atoms: _89  and  _90
REMARK   34  A    between atoms: _95  and  _97
REMARK   35  A    between atoms: _97  and  _98
REMARK   36  A    between atoms: _97  and  _100
REMARK   37  A    between atoms: _100  and  _101
REMARK   38  A    between atoms: _107  and  _109
REMARK   39  A    between atoms: _120  and  _123
REMARK   40  A    between atoms: _123  and  _124
REMARK   41  A    between atoms: _132  and  _133
REMARK   42  A    between atoms: _141  and  _143
REMARK   43  A    between atoms: _143  and  _144
REMARK   44  A    between atoms: _143  and  _146
REMARK   45  A    between atoms: _146  and  _147
REMARK   46  A    between atoms: _147  and  _148
REMARK   47  A    between atoms: _151  and  _153
REMARK   48  A    between atoms: _153  and  _154
REMARK   49  A    between atoms: _153  and  _156
REMARK   50  A    between atoms: _156  and  _157
REMARK   51  A    between atoms: _162  and  _164
REMARK   52  A    between atoms: _164  and  _165
REMARK   53  A    between atoms: _164  and  _167
REMARK   54  A    between atoms: _167  and  _168
REMARK   55  A    between atoms: _168  and  _169
REMARK   56  A    between atoms: _172  and  _174
REMARK   57  A    between atoms: _174  and  _175
REMARK   58  A    between atoms: _174  and  _177
REMARK   59  A    between atoms: _177  and  _178
REMARK   60  A    between atoms: _181  and  _183
REMARK   61  A    between atoms: _183  and  _184
REMARK   62  A    between atoms: _183  and  _186
REMARK   63  A    between atoms: _186  and  _187
REMARK   64  A    between atoms: _188  and  ZN_404
REMARK   65  A    between atoms: _192  and  _194
REMARK   66  A    between atoms: _194  and  _195
REMARK   67  A    between atoms: _194  and  _197
REMARK   68  A    between atoms: _197  and  _198
REMARK   69  A    between atoms: _201  and  _203
REMARK   70  A    between atoms: _203  and  _204
REMARK   71  A    between atoms: _203  and  _206
REMARK   72  A    between atoms: _209  and  _211
REMARK   73  A    between atoms: _211  and  _212
REMARK   74  A    between atoms: _211  and  _214
REMARK   75  A    between atoms: _214  and  _215
REMARK   76  A    between atoms: _220  and  _222
REMARK   77  A    between atoms: _222  and  _223
REMARK   78  A    between atoms: _222  and  _225
REMARK   79  A    between atoms: _228  and  _230
REMARK   80  A    between atoms: _230  and  _231
REMARK   81  A    between atoms: _233  and  _235
REMARK   82  A    between atoms: _235  and  _236
REMARK   83  A    between atoms: _235  and  _238
REMARK   84  A    between atoms: _241  and  _243
REMARK   85  A    between atoms: _243  and  _244
REMARK   86  A    between atoms: _243  and  _246
REMARK   87  A    between atoms: _246  and  _247
REMARK   88  A    between atoms: _247  and  _248
REMARK   89  A    between atoms: _253  and  _255
REMARK   90  A    between atoms: _255  and  _256
REMARK   91  A    between atoms: _255  and  _258
REMARK   92  A    between atoms: _258  and  _259
REMARK   93  A    between atoms: _262  and  _264
REMARK   94  A    between atoms: _264  and  _265
REMARK   95  A    between atoms: _268  and  _270
REMARK   96  A    between atoms: _270  and  _271
REMARK   97  A    between atoms: _270  and  _273
REMARK   98  A    between atoms: _276  and  _278
REMARK   99  A    between atoms: _278  and  _279
REMARK  100  A    between atoms: _278  and  _281
REMARK  101  A    between atoms: _281  and  _282
REMARK  102  A    between atoms: _285  and  _287
REMARK  103  A    between atoms: _287  and  _288
REMARK  104  A    between atoms: _287  and  _290
REMARK  105  A    between atoms: _290  and  _291
REMARK  106  A    between atoms: _293  and  _295
REMARK  107  A    between atoms: _295  and  _296
REMARK  108  A    between atoms: _295  and  _298
REMARK  109  A    between atoms: _298  and  _299
REMARK  110  A    between atoms: _302  and  _304
REMARK  111  A    between atoms: _304  and  _305
REMARK  112  A    between atoms: _304  and  _307
REMARK  113  A    between atoms: _307  and  _308
REMARK  114  A    between atoms: _311  and  _313
REMARK  115  A    between atoms: _313  and  _314
REMARK  116  A    between atoms: _313  and  _316
REMARK  117  A    between atoms: _316  and  _317
REMARK  118  A    between atoms: _321  and  _322
REMARK  119  A    between atoms: _328  and  _329
REMARK  120  A    between atoms: _334  and  _336
REMARK  121  A    between atoms: _336  and  _337
REMARK  122  A    between atoms: _336  and  _339
REMARK  123  A    between atoms: _339  and  _340
REMARK  124  A    between atoms: _343  and  _345
REMARK  125  A    between atoms: _345  and  _346
REMARK  126  A    between atoms: _345  and  _348
REMARK  127  A    between atoms: _348  and  _349
REMARK  128  A    between atoms: _352  and  _354
REMARK  129  A    between atoms: _354  and  _355
REMARK  130  A    between atoms: _354  and  _357
REMARK  131  A    between atoms: _360  and  _362
REMARK  132  A    between atoms: _362  and  _363
REMARK  133  A    between atoms: _362  and  _365
REMARK  134  A    between atoms: _365  and  _366
REMARK  135  A    between atoms: _376  and  _378
REMARK  136  A    between atoms: _378  and  _379
REMARK  137  A    between atoms: _378  and  _381
REMARK  138  A    between atoms: _381  and  _382
REMARK  139  A    between atoms: _387  and  _389
REMARK  140  A    between atoms: _389  and  _390
REMARK  141  A    between atoms: _389  and  _392
REMARK  142  A    between atoms: _392  and  _393
REMARK  143  A    between atoms: _393  and  _394
REMARK  144  A    between atoms: _394  and  _395
REMARK                            x       y       z     vdW  Elec       q    Type
REMARK                         _______ _______ _______ _____ _____    ______ ____
ROOT
ATOM      1  CB  ASN A   1      -2.855   1.474   5.293  0.00  0.00    +0.110 C 
ENDROOT
BRANCH   1   2
ATOM      2  CG  ASN A   1      -3.070   0.700   6.591  0.00  0.00    +0.221 C 
ATOM      3  ND2 ASN A   1      -3.493   1.415   7.626  0.00  0.00    -0.329 N 
ATOM      4 HD21 ASN A   1      -3.635   0.959   8.550  0.00  0.00    +0.145 HD
ATOM      5 HD22 ASN A   1      -3.682   2.431   7.513  0.00  0.00    +0.145 HD
ATOM      6  OD1 ASN A   1      -2.832  -0.512   6.677  0.00  0.00    -0.275 OA
ENDBRANCH   1   2
BRANCH   1   7
ATOM      7  CA  ASN A   1      -2.438   0.575   4.106  0.00  0.00    +0.142 C 
BRANCH   7   8
ATOM      8  N   ASN A   1      -3.578  -0.210   3.647  0.00  0.00    -0.239 NA
ATOM      9  H   ASN A   1      -4.178  -0.700   4.340  0.00  0.00    +0.142 HD
ENDBRANCH   7   8
BRANCH   7  10
ATOM     10  C   ASN A   1      -1.160  -0.236   4.428  0.00  0.00    +0.225 C 
ATOM     11  O   ASN A   1      -0.249   0.273   5.085  0.00  0.00    -0.287 OA
ENDBRANCH   7  10
ENDBRANCH   1   7
TORSDOF 4
REMARK  Name = ../refined-set-2016/1i9l/1i9l_pocket.pdb
REMARK  144 active torsions:
REMARK  status: ('A' for Active; 'I' for Inactive)
REMARK    1  A    between atoms: _1  and  _3
REMARK    2  A    between atoms: _3  and  _4
REMARK    3  A    between atoms: _3  and  _6
REMARK    4  A    between atoms: _6  and  _7
REMARK    5  A    between atoms: _17  and  _19
REMARK    6  A    between atoms: _19  and  _20
REMARK    7  A    between atoms: _19  and  _22
REMARK    8  A    between atoms: _22  and  _23
REMARK    9  A    between atoms: _28  and  _29
REMARK   10  A    between atoms: _31  and  _33
REMARK   11  A    between atoms: _33  and  _34
REMARK   12  A    between atoms: _33  and  _36
REMARK   13  A    between atoms: _36  and  _37
REMARK   14  A    between atoms: _40  and  _41
REMARK   15  A    between atoms: _46  and  _48
REMARK   16  A    between atoms: _48  and  _49
REMARK   17  A    between atoms: _48  and  _51
REMARK   18  A    between atoms: _51  and  _52
REMARK   19  A    between atoms: _57  and  _59
REMARK   20  A    between atoms: _59  and  _60
REMARK   21  A    between atoms: _63  and  _65
REMARK   22  A    between atoms: _65  and  _66
REMARK   23  A    between atoms: _65  and  _68
REMARK   24  A    between atoms: _68  and  _69
REMARK   25  A    between atoms: _74  and  _76
REMARK   26  A    between atoms: _76  and  _77
REMARK   27  A    between atoms: _76  and  _79
REMARK   28  A    between atoms: _79  and  _80
REMARK   29  A    between atoms: _83  and  _85
REMARK   30  A    between atoms: _85  and  _86
REMARK   31  A    between atoms: _85  and  _88
REMARK   32  A    between atoms: _88  and  _89
REMARK   33  A    between atoms: _89  and  _90
REMARK   34  A    between atoms: _95  and  _97
REMARK   35  A    between atoms: _97  and  _98
REMARK   36  A    between atoms: _97  and  _100
REMARK   37  A    between atoms: _100  and  _101
REMARK   38  A    between atoms: _107  and  _109
REMARK   39  A    between atoms: _120  and  _123
REMARK   40  A    between atoms: _123  and  _124
REMARK   41  A    between atoms: _132  and  _133
REMARK   42  A    between atoms: _141  and  _143
REMARK   43  A    between atoms: _143  and  _144
REMARK   44  A    between atoms: _143  and  _146
REMARK   45  A    between atoms: _146  and  _147
REMARK   46  A    between atoms: _147  and  _148
REMARK   47  A    between atoms: _151  and  _153
REMARK   48  A    between atoms: _153  and  _154
REMARK   49  A    between atoms: _153  and  _156
REMARK   50  A    between atoms: _156  and  _157
REMARK   51  A    between atoms: _162  and  _164
REMARK   52  A    between atoms: _164  and  _165
REMARK   53  A    between atoms: _164  and  _167
REMARK   54  A    between atoms: _167  and  _168
REMARK   55  A    between atoms: _168  and  _169
REMARK   56  A    between atoms: _172  and  _174
REMARK   57  A    between atoms: _174  and  _175
REMARK   58  A    between atoms: _174  and  _177
REMARK   59  A    between atoms: _177  and  _178
REMARK   60  A    between atoms: _181  and  _183
REMARK   61  A    between atoms: _183  and  _184
REMARK   62  A    between atoms: _183  and  _186
REMARK   63  A    between atoms: _186  and  _187
REMARK   64  A    between atoms: _188  and  ZN_404
REMARK   65  A    between atoms: _192  and  _194
REMARK   66  A    between atoms: _194  and  _195
REMARK   67  A    between atoms: _194  and  _197
REMARK   68  A    between atoms: _197  and  _198
REMARK   69  A    between atoms: _201  and  _203
REMARK   70  A    between atoms: _203  and  _204
REMARK   71  A    between atoms: _203  and  _206
REMARK   72  A    between atoms: _209  and  _211
REMARK   73  A    between atoms: _211  and  _212
REMARK   74  A    between atoms: _211  and  _214
REMARK   75  A    between atoms: _214  and  _215
REMARK   76  A    between atoms: _220  and  _222
REMARK   77  A    between atoms: _222  and  _223
REMARK   78  A    between atoms: _222  and  _225
REMARK   79  A    between atoms: _228  and  _230
REMARK   80  A    between atoms: _230  and  _231
REMARK   81  A    between atoms: _233  and  _235
REMARK   82  A    between atoms: _235  and  _236
REMARK   83  A    between atoms: _235  and  _238
REMARK   84  A    between atoms: _241  and  _243
REMARK   85  A    between atoms: _243  and  _244
REMARK   86  A    between atoms: _243  and  _246
REMARK   87  A    between atoms: _246  and  _247
REMARK   88  A    between atoms: _247  and  _248
REMARK   89  A    between atoms: _253  and  _255
REMARK   90  A    between atoms: _255  and  _256
REMARK   91  A    between atoms: _255  and  _258
REMARK   92  A    between atoms: _258  and  _259
REMARK   93  A    between atoms: _262  and  _264
REMARK   94  A    between atoms: _264  and  _265
REMARK   95  A    between atoms: _268  and  _270
REMARK   96  A    between atoms: _270  and  _271
REMARK   97  A    between atoms: _270  and  _273
REMARK   98  A    between atoms: _276  and  _278
REMARK   99  A    between atoms: _278  and  _279
REMARK  100  A    between atoms: _278  and  _281
REMARK  101  A    between atoms: _281  and  _282
REMARK  102  A    between atoms: _285  and  _287
REMARK  103  A    between atoms: _287  and  _288
REMARK  104  A    between atoms: _287  and  _290
REMARK  105  A    between atoms: _290  and  _291
REMARK  106  A    between atoms: _293  and  _295
REMARK  107  A    between atoms: _295  and  _296
REMARK  108  A    between atoms: _295  and  _298
REMARK  109  A    between atoms: _298  and  _299
REMARK  110  A    between atoms: _302  and  _304
REMARK  111  A    between atoms: _304  and  _305
REMARK  112  A    between atoms: _304  and  _307
REMARK  113  A    between atoms: _307  and  _308
REMARK  114  A    between atoms: _311  and  _313
REMARK  115  A    between atoms: _313  and  _314
REMARK  116  A    between atoms: _313  and  _316
REMARK  117  A    between atoms: _316  and  _317
REMARK  118  A    between atoms: _321  and  _322
REMARK  119  A    between atoms: _328  and  _329
REMARK  120  A    between atoms: _334  and  _336
REMARK  121  A    between atoms: _336  and  _337
REMARK  122  A    between atoms: _336  and  _339
REMARK  123  A    between atoms: _339  and  _340
REMARK  124  A    between atoms: _343  and  _345
REMARK  125  A    between atoms: _345  and  _346
REMARK  126  A    between atoms: _345  and  _348
REMARK  127  A    between atoms: _348  and  _349
REMARK  128  A    between atoms: _352  and  _354
REMARK  129  A    between atoms: _354  and  _355
REMARK  130  A    between atoms: _354  and  _357
REMARK  131  A    between atoms: _360  and  _362
REMARK  132  A    between atoms: _362  and  _363
REMARK  133  A    between atoms: _362  and  _365
REMARK  134  A    between atoms: _365  and  _366
REMARK  135  A    between atoms: _376  and  _378
REMARK  136  A    between atoms: _378  and  _379
REMARK  137  A    between atoms: _378  and  _381
REMARK  138  A    between atoms: _381  and  _382
REMARK  139  A    between atoms: _387  and  _389
REMARK  140  A    between atoms: _389  and  _390
REMARK  141  A    between atoms: _389  and  _392
REMARK  142  A    between atoms: _392  and  _393
REMARK  143  A    between atoms: _393  and  _394
REMARK  144  A    between atoms: _394  and  _395
REMARK                            x       y       z     vdW  Elec       q    Type
REMARK                         _______ _______ _______ _____ _____    ______ ____
ROOT
ATOM      1  CA  ALA A   1      -4.731  -3.843   7.442  0.00  0.00    +0.133 C 
ATOM      2  CB  ALA A   1      -5.297  -3.476   8.826  0.00  0.00    +0.027 C 
ENDROOT
BRANCH   1   3
ATOM      3  N   ALA A   1      -3.329  -3.450   7.361  0.00  0.00    -0.239 NA
ATOM      4  H   ALA A   1      -3.082  -2.679   6.708  0.00  0.00    +0.142 HD
ENDBRANCH   1   3
BRANCH   1   5
ATOM      5  C   ALA A   1      -5.437  -3.011   6.376  0.00  0.00    +0.224 C 
ATOM      6  O   ALA A   1      -4.777  -2.346   5.580  0.00  0.00    -0.287 OA
ENDBRANCH   1   5
TORSDOF 2
REMARK  Name = ../refined-set-2016/1i9l/1i9l_pocket.pdb
REMARK  144 active torsions:
REMARK  status: ('A' for Active; 'I' for Inactive)
REMARK    1  A    between atoms: _1  and  _3
REMARK    2  A    between atoms: _3  and  _4
REMARK    3  A    between atoms: _3  and  _6
REMARK    4  A    between atoms: _6  and  _7
REMARK    5  A    between atoms: _17  and  _19
REMARK    6  A    between atoms: _19  and  _20
REMARK    7  A    between atoms: _19  and  _22
REMARK    8  A    between atoms: _22  and  _23
REMARK    9  A    between atoms: _28  and  _29
REMARK   10  A    between atoms: _31  and  _33
REMARK   11  A    between atoms: _33  and  _34
REMARK   12  A    between atoms: _33  and  _36
REMARK   13  A    between atoms: _36  and  _37
REMARK   14  A    between atoms: _40  and  _41
REMARK   15  A    between atoms: _46  and  _48
REMARK   16  A    between atoms: _48  and  _49
REMARK   17  A    between atoms: _48  and  _51
REMARK   18  A    between atoms: _51  and  _52
REMARK   19  A    between atoms: _57  and  _59
REMARK   20  A    between atoms: _59  and  _60
REMARK   21  A    between atoms: _63  and  _65
REMARK   22  A    between atoms: _65  and  _66
REMARK   23  A    between atoms: _65  and  _68
REMARK   24  A    between atoms: _68  and  _69
REMARK   25  A    between atoms: _74  and  _76
REMARK   26  A    between atoms: _76  and  _77
REMARK   27  A    between atoms: _76  and  _79
REMARK   28  A    between atoms: _79  and  _80
REMARK   29  A    between atoms: _83  and  _85
REMARK   30  A    between atoms: _85  and  _86
REMARK   31  A    between atoms: _85  and  _88
REMARK   32  A    between atoms: _88  and  _89
REMARK   33  A    between atoms: _89  and  _90
REMARK   34  A    between atoms: _95  and  _97
REMARK   35  A    between atoms: _97  and  _98
REMARK   36  A    between atoms: _97  and  _100
REMARK   37  A    between atoms: _100  and  _101
REMARK   38  A    between atoms: _107  and  _109
REMARK   39  A    between atoms: _120  and  _123
REMARK   40  A    between atoms: _123  and  _124
REMARK   41  A    between atoms: _132  and  _133
REMARK   42  A    between atoms: _141  and  _143
REMARK   43  A    between atoms: _143  and  _144
REMARK   44  A    between atoms: _143  and  _146
REMARK   45  A    between atoms: _146  and  _147
REMARK   46  A    between atoms: _147  and  _148
REMARK   47  A    between atoms: _151  and  _153
REMARK   48  A    between atoms: _153  and  _154
REMARK   49  A    between atoms: _153  and  _156
REMARK   50  A    between atoms: _156  and  _157
REMARK   51  A    between atoms: _162  and  _164
REMARK   52  A    between atoms: _164  and  _165
REMARK   53  A    between atoms: _164  and  _167
REMARK   54  A    between atoms: _167  and  _168
REMARK   55  A    between atoms: _168  and  _169
REMARK   56  A    between atoms: _172  and  _174
REMARK   57  A    between atoms: _174  and  _175
REMARK   58  A    between atoms: _174  and  _177
REMARK   59  A    between atoms: _177  and  _178
REMARK   60  A    between atoms: _181  and  _183
REMARK   61  A    between atoms: _183  and  _184
REMARK   62  A    between atoms: _183  and  _186
REMARK   63  A    between atoms: _186  and  _187
REMARK   64  A    between atoms: _188  and  ZN_404
REMARK   65  A    between atoms: _192  and  _194
REMARK   66  A    between atoms: _194  and  _195
REMARK   67  A    between atoms: _194  and  _197
REMARK   68  A    between atoms: _197  and  _198
REMARK   69  A    between atoms: _201  and  _203
REMARK   70  A    between atoms: _203  and  _204
REMARK   71  A    between atoms: _203  and  _206
REMARK   72  A    between atoms: _209  and  _211
REMARK   73  A    between atoms: _211  and  _212
REMARK   74  A    between atoms: _211  and  _214
REMARK   75  A    between atoms: _214  and  _215
REMARK   76  A    between atoms: _220  and  _222
REMARK   77  A    between atoms: _222  and  _223
REMARK   78  A    between atoms: _222  and  _225
REMARK   79  A    between atoms: _228  and  _230
REMARK   80  A    between atoms: _230  and  _231
REMARK   81  A    between atoms: _233  and  _235
REMARK   82  A    between atoms: _235  and  _236
REMARK   83  A    between atoms: _235  and  _238
REMARK   84  A    between atoms: _241  and  _243
REMARK   85  A    between atoms: _243  and  _244
REMARK   86  A    between atoms: _243  and  _246
REMARK   87  A    between atoms: _246  and  _247
REMARK   88  A    between atoms: _247  and  _248
REMARK   89  A    between atoms: _253  and  _255
REMARK   90  A    between atoms: _255  and  _256
REMARK   91  A    between atoms: _255  and  _258
REMARK   92  A    between atoms: _258  and  _259
REMARK   93  A    between atoms: _262  and  _264
REMARK   94  A    between atoms: _264  and  _265
REMARK   95  A    between atoms: _268  and  _270
REMARK   96  A    between atoms: _270  and  _271
REMARK   97  A    between atoms: _270  and  _273
REMARK   98  A    between atoms: _276  and  _278
REMARK   99  A    between atoms: _278  and  _279
REMARK  100  A    between atoms: _278  and  _281
REMARK  101  A    between atoms: _281  and  _282
REMARK  102  A    between atoms: _285  and  _287
REMARK  103  A    between atoms: _287  and  _288
REMARK  104  A    between atoms: _287  and  _290
REMARK  105  A    between atoms: _290  and  _291
REMARK  106  A    between atoms: _293  and  _295
REMARK  107  A    between atoms: _295  and  _296
REMARK  108  A    between atoms: _295  and  _298
REMARK  109  A    between atoms: _298  and  _299
REMARK  110  A    between atoms: _302  and  _304
REMARK  111  A    between atoms: _304  and  _305
REMARK  112  A    between atoms: _304  and  _307
REMARK  113  A    between atoms: _307  and  _308
REMARK  114  A    between atoms: _311  and  _313
REMARK  115  A    between atoms: _313  and  _314
REMARK  116  A    between atoms: _313  and  _316
REMARK  117  A    between atoms: _316  and  _317
REMARK  118  A    between atoms: _321  and  _322
REMARK  119  A    between atoms: _328  and  _329
REMARK  120  A    between atoms: _334  and  _336
REMARK  121  A    between atoms: _336  and  _337
REMARK  122  A    between atoms: _336  and  _339
REMARK  123  A    between atoms: _339  and  _340
REMARK  124  A    between atoms: _343  and  _345
REMARK  125  A    between atoms: _345  and  _346
REMARK  126  A    between atoms: _345  and  _348
REMARK  127  A    between atoms: _348  and  _349
REMARK  128  A    between atoms: _352  and  _354
REMARK  129  A    between atoms: _354  and  _355
REMARK  130  A    between atoms: _354  and  _357
REMARK  131  A    between atoms: _360  and  _362
REMARK  132  A    between atoms: _362  and  _363
REMARK  133  A    between atoms: _362  and  _365
REMARK  134  A    between atoms: _365  and  _366
REMARK  135  A    between atoms: _376  and  _378
REMARK  136  A    between atoms: _378  and  _379
REMARK  137  A    between atoms: _378  and  _381
REMARK  138  A    between atoms: _381  and  _382
REMARK  139  A    between atoms: _387  and  _389
REMARK  140  A    between atoms: _389  and  _390
REMARK  141  A    between atoms: _389  and  _392
REMARK  142  A    between atoms: _392  and  _393
REMARK  143  A    between atoms: _393  and  _394
REMARK  144  A    between atoms: _394  and  _395
REMARK                            x       y       z     vdW  Elec       q    Type
REMARK                         _______ _______ _______ _____ _____    ______ ____
ROOT
ATOM      1  CB  ASN A   1      -8.673   2.050   7.064  0.00  0.00    +0.110 C 
ENDROOT
BRANCH   1   2
ATOM      2  CG  ASN A   1      -7.544   1.756   8.046  0.00  0.00    +0.221 C 
ATOM      3  ND2 ASN A   1      -7.448   0.532   8.534  0.00  0.00    -0.329 N 
ATOM      4 HD21 ASN A   1      -6.699   0.302   9.218  0.00  0.00    +0.145 HD
ATOM      5 HD22 ASN A   1      -8.122  -0.202   8.234  0.00  0.00    +0.145 HD
ATOM      6  OD1 ASN A   1      -6.773   2.658   8.368  0.00  0.00    -0.275 OA
ENDBRANCH   1   2
BRANCH   1   7
ATOM      7  CA  ASN A   1      -9.457   0.806   6.628  0.00  0.00    +0.142 C 
BRANCH   7   8
ATOM      8  N   ASN A   1      -8.583  -0.112   5.907  0.00  0.00    -0.239 NA
ATOM      9  H   ASN A   1      -8.022   0.243   5.107  0.00  0.00    +0.142 HD
ENDBRANCH   7   8
BRANCH   7  10
ATOM     10  C   ASN A   1     -10.641   1.320   5.811  0.00  0.00    +0.225 C 
ATOM     11  O   ASN A   1     -10.476   1.669   4.644  0.00  0.00    -0.287 OA
ENDBRANCH   7  10
ENDBRANCH   1   7
TORSDOF 4
REMARK  Name = ../refined-set-2016/1i9l/1i9l_pocket.pdb
REMARK  144 active torsions:
REMARK  status: ('A' for Active; 'I' for Inactive)
REMARK    1  A    between atoms: _1  and  _3
REMARK    2  A    between atoms: _3  and  _4
REMARK    3  A    between atoms: _3  and  _6
REMARK    4  A    between atoms: _6  and  _7
REMARK    5  A    between atoms: _17  and  _19
REMARK    6  A    between atoms: _19  and  _20
REMARK    7  A    between atoms: _19  and  _22
REMARK    8  A    between atoms: _22  and  _23
REMARK    9  A    between atoms: _28  and  _29
REMARK   10  A    between atoms: _31  and  _33
REMARK   11  A    between atoms: _33  and  _34
REMARK   12  A    between atoms: _33  and  _36
REMARK   13  A    between atoms: _36  and  _37
REMARK   14  A    between atoms: _40  and  _41
REMARK   15  A    between atoms: _46  and  _48
REMARK   16  A    between atoms: _48  and  _49
REMARK   17  A    between atoms: _48  and  _51
REMARK   18  A    between atoms: _51  and  _52
REMARK   19  A    between atoms: _57  and  _59
REMARK   20  A    between atoms: _59  and  _60
REMARK   21  A    between atoms: _63  and  _65
REMARK   22  A    between atoms: _65  and  _66
REMARK   23  A    between atoms: _65  and  _68
REMARK   24  A    between atoms: _68  and  _69
REMARK   25  A    between atoms: _74  and  _76
REMARK   26  A    between atoms: _76  and  _77
REMARK   27  A    between atoms: _76  and  _79
REMARK   28  A    between atoms: _79  and  _80
REMARK   29  A    between atoms: _83  and  _85
REMARK   30  A    between atoms: _85  and  _86
REMARK   31  A    between atoms: _85  and  _88
REMARK   32  A    between atoms: _88  and  _89
REMARK   33  A    between atoms: _89  and  _90
REMARK   34  A    between atoms: _95  and  _97
REMARK   35  A    between atoms: _97  and  _98
REMARK   36  A    between atoms: _97  and  _100
REMARK   37  A    between atoms: _100  and  _101
REMARK   38  A    between atoms: _107  and  _109
REMARK   39  A    between atoms: _120  and  _123
REMARK   40  A    between atoms: _123  and  _124
REMARK   41  A    between atoms: _132  and  _133
REMARK   42  A    between atoms: _141  and  _143
REMARK   43  A    between atoms: _143  and  _144
REMARK   44  A    between atoms: _143  and  _146
REMARK   45  A    between atoms: _146  and  _147
REMARK   46  A    between atoms: _147  and  _148
REMARK   47  A    between atoms: _151  and  _153
REMARK   48  A    between atoms: _153  and  _154
REMARK   49  A    between atoms: _153  and  _156
REMARK   50  A    between atoms: _156  and  _157
REMARK   51  A    between atoms: _162  and  _164
REMARK   52  A    between atoms: _164  and  _165
REMARK   53  A    between atoms: _164  and  _167
REMARK   54  A    between atoms: _167  and  _168
REMARK   55  A    between atoms: _168  and  _169
REMARK   56  A    between atoms: _172  and  _174
REMARK   57  A    between atoms: _174  and  _175
REMARK   58  A    between atoms: _174  and  _177
REMARK   59  A    between atoms: _177  and  _178
REMARK   60  A    between atoms: _181  and  _183
REMARK   61  A    between atoms: _183  and  _184
REMARK   62  A    between atoms: _183  and  _186
REMARK   63  A    between atoms: _186  and  _187
REMARK   64  A    between atoms: _188  and  ZN_404
REMARK   65  A    between atoms: _192  and  _194
REMARK   66  A    between atoms: _194  and  _195
REMARK   67  A    between atoms: _194  and  _197
REMARK   68  A    between atoms: _197  and  _198
REMARK   69  A    between atoms: _201  and  _203
REMARK   70  A    between atoms: _203  and  _204
REMARK   71  A    between atoms: _203  and  _206
REMARK   72  A    between atoms: _209  and  _211
REMARK   73  A    between atoms: _211  and  _212
REMARK   74  A    between atoms: _211  and  _214
REMARK   75  A    between atoms: _214  and  _215
REMARK   76  A    between atoms: _220  and  _222
REMARK   77  A    between atoms: _222  and  _223
REMARK   78  A    between atoms: _222  and  _225
REMARK   79  A    between atoms: _228  and  _230
REMARK   80  A    between atoms: _230  and  _231
REMARK   81  A    between atoms: _233  and  _235
REMARK   82  A    between atoms: _235  and  _236
REMARK   83  A    between atoms: _235  and  _238
REMARK   84  A    between atoms: _241  and  _243
REMARK   85  A    between atoms: _243  and  _244
REMARK   86  A    between atoms: _243  and  _246
REMARK   87  A    between atoms: _246  and  _247
REMARK   88  A    between atoms: _247  and  _248
REMARK   89  A    between atoms: _253  and  _255
REMARK   90  A    between atoms: _255  and  _256
REMARK   91  A    between atoms: _255  and  _258
REMARK   92  A    between atoms: _258  and  _259
REMARK   93  A    between atoms: _262  and  _264
REMARK   94  A    between atoms: _264  and  _265
REMARK   95  A    between atoms: _268  and  _270
REMARK   96  A    between atoms: _270  and  _271
REMARK   97  A    between atoms: _270  and  _273
REMARK   98  A    between atoms: _276  and  _278
REMARK   99  A    between atoms: _278  and  _279
REMARK  100  A    between atoms: _278  and  _281
REMARK  101  A    between atoms: _281  and  _282
REMARK  102  A    between atoms: _285  and  _287
REMARK  103  A    between atoms: _287  and  _288
REMARK  104  A    between atoms: _287  and  _290
REMARK  105  A    between atoms: _290  and  _291
REMARK  106  A    between atoms: _293  and  _295
REMARK  107  A    between atoms: _295  and  _296
REMARK  108  A    between atoms: _295  and  _298
REMARK  109  A    between atoms: _298  and  _299
REMARK  110  A    between atoms: _302  and  _304
REMARK  111  A    between atoms: _304  and  _305
REMARK  112  A    between atoms: _304  and  _307
REMARK  113  A    between atoms: _307  and  _308
REMARK  114  A    between atoms: _311  and  _313
REMARK  115  A    between atoms: _313  and  _314
REMARK  116  A    between atoms: _313  and  _316
REMARK  117  A    between atoms: _316  and  _317
REMARK  118  A    between atoms: _321  and  _322
REMARK  119  A    between atoms: _328  and  _329
REMARK  120  A    between atoms: _334  and  _336
REMARK  121  A    between atoms: _336  and  _337
REMARK  122  A    between atoms: _336  and  _339
REMARK  123  A    between atoms: _339  and  _340
REMARK  124  A    between atoms: _343  and  _345
REMARK  125  A    between atoms: _345  and  _346
REMARK  126  A    between atoms: _345  and  _348
REMARK  127  A    between atoms: _348  and  _349
REMARK  128  A    between atoms: _352  and  _354
REMARK  129  A    between atoms: _354  and  _355
REMARK  130  A    between atoms: _354  and  _357
REMARK  131  A    between atoms: _360  and  _362
REMARK  132  A    between atoms: _362  and  _363
REMARK  133  A    between atoms: _362  and  _365
REMARK  134  A    between atoms: _365  and  _366
REMARK  135  A    between atoms: _376  and  _378
REMARK  136  A    between atoms: _378  and  _379
REMARK  137  A    between atoms: _378  and  _381
REMARK  138  A    between atoms: _381  and  _382
REMARK  139  A    between atoms: _387  and  _389
REMARK  140  A    between atoms: _389  and  _390
REMARK  141  A    between atoms: _389  and  _392
REMARK  142  A    between atoms: _392  and  _393
REMARK  143  A    between atoms: _393  and  _394
REMARK  144  A    between atoms: _394  and  _395
REMARK                            x       y       z     vdW  Elec       q    Type
REMARK                         _______ _______ _______ _____ _____    ______ ____
ROOT
ATOM      1  C   UNK A   4     -10.494  -2.008  10.616  0.00  0.00    +0.000 C 
ATOM      2  C   UNK A   4     -10.588  -3.283  11.461  0.00  0.00    +0.000 C 
ATOM      3  O   UNK A   4     -11.183  -3.292  12.550  0.00  0.00    +0.000 OA
ATOM      4  N   VAL A   5      -9.979  -4.346  10.937  0.00  0.00    +0.000 N 
ATOM      5  CA  VAL A   5      -9.949  -5.667  11.562  0.00  0.00    +0.000 C 
ATOM      6  C   VAL A   5      -8.500  -6.113  11.764  0.00  0.00    +0.000 C 
ATOM      7  N   UNK A   6      -8.332  -7.114  12.612  0.00  0.00    +0.000 N 
ATOM      8  H   UNK A   6      -9.169  -7.473  13.115  0.00  0.00    +0.000 HD
ATOM      9  C   UNK A   6      -7.039  -7.750  12.887  0.00  0.00    +0.000 C 
ATOM     10  C   UNK A   6      -6.544  -7.434  14.315  0.00  0.00    +0.000 C 
ATOM     11  C   UNK A   6      -6.294  -5.973  14.574  0.00  0.00    +0.000 A 
ATOM     12  C   UNK A   6      -7.138  -4.997  15.003  0.00  0.00    +0.000 A 
ATOM     13  N   UNK A   6      -6.442  -3.750  15.116  0.00  0.00    +0.000 N 
ATOM     14 ZN   UNK A   6      -7.022  -1.922  15.512  0.00  0.00    +0.000 Zn
ATOM     15  N   UNK A   4      -7.635  -1.071  14.071  0.00  0.00    +0.000 N 
ATOM     16  C   UNK A   4      -8.177   0.102  13.808  0.00  0.00    +0.000 A 
ATOM     17  N   UNK A   4      -8.754   0.106  12.598  0.00  0.00    +0.000 NA
ATOM     18  C   UNK A   4      -8.579  -1.137  12.029  0.00  0.00    +0.000 A 
ATOM     19  C   UNK A   4      -7.889  -1.862  12.946  0.00  0.00    +0.000 A 
ATOM     20  C   UNK A   6      -5.210  -4.049  14.743  0.00  0.00    +0.000 A 
ATOM     21  N   UNK A   6      -5.077  -5.353  14.413  0.00  0.00    +0.000 NA
ATOM     22  O   VAL A   5      -7.571  -5.564  11.180  0.00  0.00    +0.000 OA
ATOM     23  H   VAL A   5      -9.494  -4.228  10.025  0.00  0.00    +0.000 HD
ATOM     24  C   UNK A   4      -9.054  -1.514  10.656  0.00  0.00    +0.000 C 
ENDROOT
BRANCH  14  25
ATOM     25  N   UNK A   6      -8.357  -2.696  16.584  0.00  0.00    +0.000 N 
ATOM     26  C   UNK A   6      -7.994  -3.606  17.472  0.00  0.00    +0.000 A 
ATOM     27  N   UNK A   6      -9.049  -4.108  18.134  0.00  0.00    +0.000 NA
ATOM     28  C   UNK A   6     -10.165  -3.482  17.645  0.00  0.00    +0.000 A 
ATOM     29  C   UNK A   6      -9.733  -2.612  16.693  0.00  0.00    +0.000 A 
BRANCH  29  30
ATOM     30  C   UNK A   6     -10.525  -1.629  15.890  0.00  0.00    +0.000 C 
BRANCH  30  31
ATOM     31  C   UNK A   6     -12.035  -1.900  15.865  0.00  0.00    +0.000 C 
BRANCH  31  32
ATOM     32  C   UNK A   6     -12.700  -0.698  15.198  0.00  0.00    +0.000 C 
ATOM     33  N   UNK A   4     -13.672  -0.105  15.881  0.00  0.00    +0.000 N 
ATOM     34  H   UNK A   4     -13.957  -0.499  16.801  0.00  0.00    +0.000 HD
ATOM     35  O   UNK A   6     -12.355  -0.337  14.058  0.00  0.00    +0.000 OA
BRANCH  33  36
ATOM     36  C   UNK A   4     -14.351   1.082  15.378  0.00  0.00    +0.000 C 
BRANCH  36  37
ATOM     37  C   UNK A   4     -13.702   2.212  16.168  0.00  0.00    +0.000 C 
ATOM     38  O   UNK A   4     -13.845   2.294  17.398  0.00  0.00    +0.000 OA
ATOM     39  N   VAL A   5     -12.945   3.037  15.459  0.00  0.00    +0.000 N 
ATOM     40  H   VAL A   5     -12.898   2.903  14.429  0.00  0.00    +0.000 HD
BRANCH  39  41
ATOM     41  CA  VAL A   5     -12.176   4.122  16.053  0.00  0.00    +0.000 C 
BRANCH  41  42
ATOM     42  C   VAL A   5     -12.893   5.469  16.097  0.00  0.00    +0.000 C 
ATOM     43  N   UNK A   6     -12.974   6.053  17.301  0.00  0.00    +0.000 N 
ATOM     44  H   UNK A   6     -12.554   5.559  18.114  0.00  0.00    +0.000 HD
ATOM     45  O   VAL A   5     -13.362   5.958  15.058  0.00  0.00    +0.000 OA
BRANCH  43  46
ATOM     46  C   UNK A   6     -13.626   7.359  17.539  0.00  0.00    +0.000 C 
BRANCH  46  47
ATOM     47  C   UNK A   6     -12.676   8.301  18.279  0.00  0.00    +0.000 C 
ATOM     48  O   UNK A   6     -11.855   7.835  19.066  0.00  0.00    +0.000 OA
ENDBRANCH  46  47
BRANCH  46  49
ATOM     49  C   UNK A   6     -14.857   7.215  18.447  0.00  0.00    +0.000 C 
BRANCH  49  50
ATOM     50  C   UNK A   6     -15.868   6.213  17.986  0.00  0.00    +0.000 A 
ATOM     51  N   UNK A   6     -15.637   4.855  18.014  0.00  0.00    +0.000 NA
ATOM     52  C   UNK A   6     -16.718   4.217  17.599  0.00  0.00    +0.000 A 
ATOM     53  N   UNK A   6     -17.642   5.112  17.302  0.00  0.00    +0.000 NA
ATOM     54  C   UNK A   6     -17.137   6.369  17.535  0.00  0.00    +0.000 A 
ENDBRANCH  49  50
ENDBRANCH  46  49
ENDBRANCH  43  46
ENDBRANCH  41  42
BRANCH  41  55
ATOM     55  CB  VAL A   5     -10.803   4.261  15.314  0.00  0.00    +0.000 C 
ATOM     56  CG2 VAL A   5      -9.876   5.213  16.054  0.00  0.00    +0.000 C 
ATOM     57  CG1 VAL A   5     -10.143   2.905  15.166  0.00  0.00    +0.000 C 
ENDBRANCH  41  55
ENDBRANCH  39  41
ENDBRANCH  36  37
BRANCH  36  58
ATOM     58  C   UNK A   4     -15.861   0.992  15.615  0.00  0.00    +0.000 C 
BRANCH  58  59
ATOM     59  C   UNK A   4     -16.545  -0.089  14.753  0.00  0.00    +0.000 C 
ATOM     60  C   UNK A   4     -17.364  -1.040  15.604  0.00  0.00    +0.000 C 
ATOM     61  C   UNK A   4     -17.417   0.574  13.680  0.00  0.00    +0.000 C 
ENDBRANCH  58  59
ENDBRANCH  36  58
ENDBRANCH  33  36
ENDBRANCH  31  32
BRANCH  31  62
ATOM     62  N   UNK A   6     -12.330  -3.123  15.125  0.00  0.00    +0.000 N 
ATOM     63  C   LEU A   2     -12.923  -4.193  15.657  0.00  0.00    +0.000 C 
ATOM     64  O   LEU A   2     -13.279  -4.254  16.821  0.00  0.00    +0.000 OA
ATOM     65  H   UNK A   6     -12.061  -3.163  14.121  0.00  0.00    +0.000 HD
BRANCH  63  66
ATOM     66  CA  LEU A   2     -13.174  -5.379  14.711  0.00  0.00    +0.000 C 
BRANCH  66  67
ATOM     67  N   LEU A   2     -12.801  -6.626  15.379  0.00  0.00    +0.000 N 
ATOM     68  H   LEU A   2     -13.466  -7.051  16.056  0.00  0.00    +0.000 HD
ATOM     69  C   GLU A   1     -11.646  -7.232  15.152  0.00  0.00    +0.000 C 
ATOM     70  O   GLU A   1     -10.856  -6.846  14.291  0.00  0.00    +0.000 OA
BRANCH  69  71
ATOM     71  CA  GLU A   1     -11.381  -8.525  15.959  0.00  0.00    +0.000 C 
BRANCH  71  72
ATOM     72  N   GLU A   1     -10.838  -9.571  15.100  0.00  0.00    +0.000 NA
ATOM     73  H   GLU A   1     -10.137  -9.319  14.374  0.00  0.00    +0.000 HD
ENDBRANCH  71  72
BRANCH  71  74
ATOM     74  CB  GLU A   1     -10.433  -8.274  17.154  0.00  0.00    +0.000 C 
BRANCH  74  75
ATOM     75  CG  GLU A   1     -10.954  -7.303  18.254  0.00  0.00    +0.000 C 
BRANCH  75  76
ATOM     76  CD  GLU A   1     -10.010  -7.217  19.455  0.00  0.00    +0.000 C 
ATOM     77  OE2 GLU A   1      -9.798  -6.103  19.981  0.00  0.00    +0.000 OA
ATOM     78  OE1 GLU A   1      -9.480  -8.276  19.872  0.00  0.00    +0.000 OA
ENDBRANCH  75  76
ENDBRANCH  74  75
ENDBRANCH  71  74
ENDBRANCH  69  71
ENDBRANCH  66  67
BRANCH  66  79
ATOM     79  CB  LEU A   2     -14.657  -5.407  14.317  0.00  0.00    +0.000 C 
BRANCH  79  80
ATOM     80  CG  LEU A   2     -15.321  -4.127  13.808  0.00  0.00    +0.000 C 
ATOM     81  CD2 LEU A   2     -16.807  -4.392  13.649  0.00  0.00    +0.000 C 
ATOM     82  CD1 LEU A   2     -14.704  -3.682  12.487  0.00  0.00    +0.000 C 
ENDBRANCH  79  80
ENDBRANCH  66  79
ENDBRANCH  63  66
ENDBRANCH  31  62
ENDBRANCH  30  31
ENDBRANCH  29  30
ENDBRANCH  14  25
BRANCH   1  84
ATOM     83  C   UNK A   3     -11.977  -0.019  10.465  0.00  0.00    +0.000 C 
ATOM     84  N   UNK A   4     -11.393  -0.998  11.162  0.00  0.00    +0.000 N 
ATOM     85  H   UNK A   4     -11.597  -1.044  12.181  0.00  0.00    +0.000 HD
ATOM     86  O   UNK A   3     -11.786   0.201   9.253  0.00  0.00    +0.000 OA
BRANCH  83  87
ATOM     87  C   UNK A   3     -12.863   0.908  11.295  0.00  0.00    +0.000 C 
BRANCH  87  90
ATOM     88  C   LEU A   2     -12.717   3.321  11.400  0.00  0.00    +0.000 C 
ATOM     89  O   LEU A   2     -12.721   3.318  12.630  0.00  0.00    +0.000 OA
ATOM     90  N   UNK A   3     -12.865   2.223  10.665  0.00  0.00    +0.000 N 
ATOM     91  H   UNK A   3     -12.983   2.303   9.635  0.00  0.00    +0.000 HD
BRANCH  88  92
ATOM     92  CA  LEU A   2     -12.618   4.622  10.631  0.00  0.00    +0.000 C 
BRANCH  92  94
ATOM     93  C   GLU A   1     -13.089   7.001  10.907  0.00  0.00    +0.000 C 
ATOM     94  N   LEU A   2     -12.912   5.798  11.454  0.00  0.00    +0.000 N 
ATOM     95  H   LEU A   2     -12.984   5.692  12.486  0.00  0.00    +0.000 HD
ATOM     96  O   GLU A   1     -13.025   7.190   9.680  0.00  0.00    +0.000 OA
BRANCH  93  97
ATOM     97  CA  GLU A   1     -13.411   8.165  11.869  0.00  0.00    +0.000 C 
BRANCH  97  98
ATOM     98  CB  GLU A   1     -12.134   8.902  12.372  0.00  0.00    +0.000 C 
ATOM     99  CG2 GLU A   1     -11.339   8.036  13.334  0.00  0.00    +0.000 C 
BRANCH  98 100
ATOM    100  CG1 GLU A   1     -11.289   9.367  11.182  0.00  0.00    +0.000 C 
ATOM    101  CD1 GLU A   1     -10.308  10.444  11.525  0.00  0.00    +0.000 C 
ENDBRANCH  98 100
ENDBRANCH  97  98
BRANCH  97 102
ATOM    102  N   GLU A   1     -14.252   7.744  12.981  0.00  0.00    +0.000 NA
ATOM    103  H   GLU A   1     -13.889   7.064  13.679  0.00  0.00    +0.000 HD
ENDBRANCH  97 102
ENDBRANCH  93  97
ENDBRANCH  92  94
BRANCH  92 104
ATOM    104  CB  LEU A   2     -11.209   4.708  10.017  0.00  0.00    +0.000 C 
BRANCH 104 105
ATOM    105  CG  LEU A   2     -10.042   4.844  11.028  0.00  0.00    +0.000 C 
BRANCH 105 106
ATOM    106  CD  LEU A   2      -9.343   3.516  11.405  0.00  0.00    +0.000 C 
ATOM    107  NE2 LEU A   2      -8.058   3.603  11.730  0.00  0.00    +0.000 N 
ATOM    108 HE21 LEU A   2      -7.530   2.748  11.998  0.00  0.00    +0.000 HD
ATOM    109 HE22 LEU A   2      -7.580   4.526  11.716  0.00  0.00    +0.000 HD
ATOM    110  OE1 LEU A   2      -9.949   2.441  11.408  0.00  0.00    +0.000 OA
ENDBRANCH 105 106
ENDBRANCH 104 105
ENDBRANCH  92 104
ENDBRANCH  88  92
ENDBRANCH  87  90
BRANCH  87 111
ATOM    111  C   UNK A   3     -14.269   0.332  11.572  0.00  0.00    +0.000 C 
BRANCH 111 112
ATOM    112  C   UNK A   3     -15.041  -0.093  10.343  0.00  0.00    +0.000 A 
ATOM    113  C   UNK A   3     -16.122   0.666   9.889  0.00  0.00    +0.000 A 
ATOM    114  C   UNK A   3     -16.872   0.252   8.818  0.00  0.00    +0.000 A 
ATOM    115  C   UNK A   3     -16.562  -0.932   8.164  0.00  0.00    +0.000 A 
ATOM    116  C   UNK A   3     -15.494  -1.703   8.588  0.00  0.00    +0.000 A 
ATOM    117  C   UNK A   3     -14.736  -1.283   9.678  0.00  0.00    +0.000 A 
ENDBRANCH 111 112
ENDBRANCH  87 111
ENDBRANCH  83  87
ENDBRANCH   1  84
BRANCH   9 118
ATOM    118  C   UNK A   6      -7.482  -9.224  12.765  0.00  0.00    +0.000 C 
ATOM    119  O   UNK A   6      -8.585  -9.579  13.210  0.00  0.00    +0.000 OA
ENDBRANCH   9 118
BRANCH   5 120
ATOM    120  CB  VAL A   5     -10.604  -6.716  10.647  0.00  0.00    +0.000 C 
BRANCH 120 121
ATOM    121  CG  VAL A   5     -12.043  -6.422  10.273  0.00  0.00    +0.000 A 
ATOM    122  CD2 VAL A   5     -13.083  -7.178  10.817  0.00  0.00    +0.000 A 
ATOM    123  CE2 VAL A   5     -14.411  -6.946  10.454  0.00  0.00    +0.000 A 
ATOM    124  CZ  VAL A   5     -14.724  -5.949   9.536  0.00  0.00    +0.000 A 
ATOM    125  CE1 VAL A   5     -13.697  -5.180   8.984  0.00  0.00    +0.000 A 
ATOM    126  CD1 VAL A   5     -12.355  -5.420   9.355  0.00  0.00    +0.000 A 
ENDBRANCH 120 121
ENDBRANCH   5 120
TORSDOF 42
REMARK  Name = ../refined-set-2016/1i9l/1i9l_pocket.pdb
REMARK  144 active torsions:
REMARK  status: ('A' for Active; 'I' for Inactive)
REMARK    1  A    between atoms: _1  and  _3
REMARK    2  A    between atoms: _3  and  _4
REMARK    3  A    between atoms: _3  and  _6
REMARK    4  A    between atoms: _6  and  _7
REMARK    5  A    between atoms: _17  and  _19
REMARK    6  A    between atoms: _19  and  _20
REMARK    7  A    between atoms: _19  and  _22
REMARK    8  A    between atoms: _22  and  _23
REMARK    9  A    between atoms: _28  and  _29
REMARK   10  A    between atoms: _31  and  _33
REMARK   11  A    between atoms: _33  and  _34
REMARK   12  A    between atoms: _33  and  _36
REMARK   13  A    between atoms: _36  and  _37
REMARK   14  A    between atoms: _40  and  _41
REMARK   15  A    between atoms: _46  and  _48
REMARK   16  A    between atoms: _48  and  _49
REMARK   17  A    between atoms: _48  and  _51
REMARK   18  A    between atoms: _51  and  _52
REMARK   19  A    between atoms: _57  and  _59
REMARK   20  A    between atoms: _59  and  _60
REMARK   21  A    between atoms: _63  and  _65
REMARK   22  A    between atoms: _65  and  _66
REMARK   23  A    between atoms: _65  and  _68
REMARK   24  A    between atoms: _68  and  _69
REMARK   25  A    between atoms: _74  and  _76
REMARK   26  A    between atoms: _76  and  _77
REMARK   27  A    between atoms: _76  and  _79
REMARK   28  A    between atoms: _79  and  _80
REMARK   29  A    between atoms: _83  and  _85
REMARK   30  A    between atoms: _85  and  _86
REMARK   31  A    between atoms: _85  and  _88
REMARK   32  A    between atoms: _88  and  _89
REMARK   33  A    between atoms: _89  and  _90
REMARK   34  A    between atoms: _95  and  _97
REMARK   35  A    between atoms: _97  and  _98
REMARK   36  A    between atoms: _97  and  _100
REMARK   37  A    between atoms: _100  and  _101
REMARK   38  A    between atoms: _107  and  _109
REMARK   39  A    between atoms: _120  and  _123
REMARK   40  A    between atoms: _123  and  _124
REMARK   41  A    between atoms: _132  and  _133
REMARK   42  A    between atoms: _141  and  _143
REMARK   43  A    between atoms: _143  and  _144
REMARK   44  A    between atoms: _143  and  _146
REMARK   45  A    between atoms: _146  and  _147
REMARK   46  A    between atoms: _147  and  _148
REMARK   47  A    between atoms: _151  and  _153
REMARK   48  A    between atoms: _153  and  _154
REMARK   49  A    between atoms: _153  and  _156
REMARK   50  A    between atoms: _156  and  _157
REMARK   51  A    between atoms: _162  and  _164
REMARK   52  A    between atoms: _164  and  _165
REMARK   53  A    between atoms: _164  and  _167
REMARK   54  A    between atoms: _167  and  _168
REMARK   55  A    between atoms: _168  and  _169
REMARK   56  A    between atoms: _172  and  _174
REMARK   57  A    between atoms: _174  and  _175
REMARK   58  A    between atoms: _174  and  _177
REMARK   59  A    between atoms: _177  and  _178
REMARK   60  A    between atoms: _181  and  _183
REMARK   61  A    between atoms: _183  and  _184
REMARK   62  A    between atoms: _183  and  _186
REMARK   63  A    between atoms: _186  and  _187
REMARK   64  A    between atoms: _188  and  ZN_404
REMARK   65  A    between atoms: _192  and  _194
REMARK   66  A    between atoms: _194  and  _195
REMARK   67  A    between atoms: _194  and  _197
REMARK   68  A    between atoms: _197  and  _198
REMARK   69  A    between atoms: _201  and  _203
REMARK   70  A    between atoms: _203  and  _204
REMARK   71  A    between atoms: _203  and  _206
REMARK   72  A    between atoms: _209  and  _211
REMARK   73  A    between atoms: _211  and  _212
REMARK   74  A    between atoms: _211  and  _214
REMARK   75  A    between atoms: _214  and  _215
REMARK   76  A    between atoms: _220  and  _222
REMARK   77  A    between atoms: _222  and  _223
REMARK   78  A    between atoms: _222  and  _225
REMARK   79  A    between atoms: _228  and  _230
REMARK   80  A    between atoms: _230  and  _231
REMARK   81  A    between atoms: _233  and  _235
REMARK   82  A    between atoms: _235  and  _236
REMARK   83  A    between atoms: _235  and  _238
REMARK   84  A    between atoms: _241  and  _243
REMARK   85  A    between atoms: _243  and  _244
REMARK   86  A    between atoms: _243  and  _246
REMARK   87  A    between atoms: _246  and  _247
REMARK   88  A    between atoms: _247  and  _248
REMARK   89  A    between atoms: _253  and  _255
REMARK   90  A    between atoms: _255  and  _256
REMARK   91  A    between atoms: _255  and  _258
REMARK   92  A    between atoms: _258  and  _259
REMARK   93  A    between atoms: _262  and  _264
REMARK   94  A    between atoms: _264  and  _265
REMARK   95  A    between atoms: _268  and  _270
REMARK   96  A    between atoms: _270  and  _271
REMARK   97  A    between atoms: _270  and  _273
REMARK   98  A    between atoms: _276  and  _278
REMARK   99  A    between atoms: _278  and  _279
REMARK  100  A    between atoms: _278  and  _281
REMARK  101  A    between atoms: _281  and  _282
REMARK  102  A    between atoms: _285  and  _287
REMARK  103  A    between atoms: _287  and  _288
REMARK  104  A    between atoms: _287  and  _290
REMARK  105  A    between atoms: _290  and  _291
REMARK  106  A    between atoms: _293  and  _295
REMARK  107  A    between atoms: _295  and  _296
REMARK  108  A    between atoms: _295  and  _298
REMARK  109  A    between atoms: _298  and  _299
REMARK  110  A    between atoms: _302  and  _304
REMARK  111  A    between atoms: _304  and  _305
REMARK  112  A    between atoms: _304  and  _307
REMARK  113  A    between atoms: _307  and  _308
REMARK  114  A    between atoms: _311  and  _313
REMARK  115  A    between atoms: _313  and  _314
REMARK  116  A    between atoms: _313  and  _316
REMARK  117  A    between atoms: _316  and  _317
REMARK  118  A    between atoms: _321  and  _322
REMARK  119  A    between atoms: _328  and  _329
REMARK  120  A    between atoms: _334  and  _336
REMARK  121  A    between atoms: _336  and  _337
REMARK  122  A    between atoms: _336  and  _339
REMARK  123  A    between atoms: _339  and  _340
REMARK  124  A    between atoms: _343  and  _345
REMARK  125  A    between atoms: _345  and  _346
REMARK  126  A    between atoms: _345  and  _348
REMARK  127  A    between atoms: _348  and  _349
REMARK  128  A    between atoms: _352  and  _354
REMARK  129  A    between atoms: _354  and  _355
REMARK  130  A    between atoms: _354  and  _357
REMARK  131  A    between atoms: _360  and  _362
REMARK  132  A    between atoms: _362  and  _363
REMARK  133  A    between atoms: _362  and  _365
REMARK  134  A    between atoms: _365  and  _366
REMARK  135  A    between atoms: _376  and  _378
REMARK  136  A    between atoms: _378  and  _379
REMARK  137  A    between atoms: _378  and  _381
REMARK  138  A    between atoms: _381  and  _382
REMARK  139  A    between atoms: _387  and  _389
REMARK  140  A    between atoms: _389  and  _390
REMARK  141  A    between atoms: _389  and  _392
REMARK  142  A    between atoms: _392  and  _393
REMARK  143  A    between atoms: _393  and  _394
REMARK  144  A    between atoms: _394  and  _395
REMARK                            x       y       z     vdW  Elec       q    Type
REMARK                         _______ _______ _______ _____ _____    ______ ____
ROOT
ATOM      1  C   GLU A   1      -6.116  -9.161  21.452  0.00  0.00    +0.238 C 
ATOM      2  O   GLU A   1      -5.275  -9.618  22.221  0.00  0.00    -0.274 OA
ATOM      3  N   HIS A   2      -7.338  -8.804  21.852  0.00  0.00    -0.298 N 
ATOM      4  H   HIS A   2      -7.990  -8.361  21.173  0.00  0.00    +0.150 HD
ENDROOT
BRANCH   1   5
ATOM      5  CA  GLU A   1      -5.802  -8.952  19.967  0.00  0.00    +0.145 C 
BRANCH   5   6
ATOM      6  N   GLU A   1      -6.861  -9.580  19.189  0.00  0.00    -0.238 NA
ATOM      7  H   GLU A   1      -7.729  -9.038  19.005  0.00  0.00    +0.142 HD
ENDBRANCH   5   6
BRANCH   5   8
ATOM      8  CB  GLU A   1      -5.700  -7.467  19.601  0.00  0.00    +0.038 C 
BRANCH   8   9
ATOM      9  CG  GLU A   1      -5.363  -7.243  18.120  0.00  0.00    +0.116 C 
BRANCH   9  10
ATOM     10  CD  GLU A   1      -4.647  -5.941  17.873  0.00  0.00    +0.365 C 
ATOM     11  OE2 GLU A   1      -5.228  -4.865  18.123  0.00  0.00    -0.246 OA
ATOM     12  OE1 GLU A   1      -3.492  -5.990  17.427  0.00  0.00    -0.246 OA
ENDBRANCH   9  10
ENDBRANCH   8   9
ENDBRANCH   5   8
ENDBRANCH   1   5
BRANCH   3  13
ATOM     13  CA  HIS A   2      -7.775  -9.026  23.228  0.00  0.00    +0.143 C 
BRANCH  13  14
ATOM     14  C   HIS A   2      -8.195 -10.491  23.292  0.00  0.00    +0.227 C 
ATOM     15  O   HIS A   2      -8.599 -11.068  22.272  0.00  0.00    -0.286 OA
ENDBRANCH  13  14
BRANCH  13  16
ATOM     16  CB  HIS A   2      -8.990  -8.164  23.584  0.00  0.00    +0.075 C 
BRANCH  16  17
ATOM     17  CG  HIS A   2      -8.663  -6.723  23.791  0.00  0.00    +0.082 A 
ATOM     18  CD2 HIS A   2      -8.194  -6.064  24.879  0.00  0.00    +0.115 A 
ATOM     19  NE2 HIS A   2      -7.993  -4.758  24.505  0.00  0.00    -0.221 NA
ATOM     20  CE1 HIS A   2      -8.329  -4.620  23.234  0.00  0.00    +0.199 A 
ATOM     21  ND1 HIS A   2      -8.742  -5.791  22.780  0.00  0.00    -0.227 NA
ENDBRANCH  16  17
ENDBRANCH  13  16
ENDBRANCH   3  13
TORSDOF 9
REMARK  Name = ../refined-set-2016/1i9l/1i9l_pocket.pdb
REMARK  144 active torsions:
REMARK  status: ('A' for Active; 'I' for Inactive)
REMARK    1  A    between atoms: _1  and  _3
REMARK    2  A    between atoms: _3  and  _4
REMARK    3  A    between atoms: _3  and  _6
REMARK    4  A    between atoms: _6  and  _7
REMARK    5  A    between atoms: _17  and  _19
REMARK    6  A    between atoms: _19  and  _20
REMARK    7  A    between atoms: _19  and  _22
REMARK    8  A    between atoms: _22  and  _23
REMARK    9  A    between atoms: _28  and  _29
REMARK   10  A    between atoms: _31  and  _33
REMARK   11  A    between atoms: _33  and  _34
REMARK   12  A    between atoms: _33  and  _36
REMARK   13  A    between atoms: _36  and  _37
REMARK   14  A    between atoms: _40  and  _41
REMARK   15  A    between atoms: _46  and  _48
REMARK   16  A    between atoms: _48  and  _49
REMARK   17  A    between atoms: _48  and  _51
REMARK   18  A    between atoms: _51  and  _52
REMARK   19  A    between atoms: _57  and  _59
REMARK   20  A    between atoms: _59  and  _60
REMARK   21  A    between atoms: _63  and  _65
REMARK   22  A    between atoms: _65  and  _66
REMARK   23  A    between atoms: _65  and  _68
REMARK   24  A    between atoms: _68  and  _69
REMARK   25  A    between atoms: _74  and  _76
REMARK   26  A    between atoms: _76  and  _77
REMARK   27  A    between atoms: _76  and  _79
REMARK   28  A    between atoms: _79  and  _80
REMARK   29  A    between atoms: _83  and  _85
REMARK   30  A    between atoms: _85  and  _86
REMARK   31  A    between atoms: _85  and  _88
REMARK   32  A    between atoms: _88  and  _89
REMARK   33  A    between atoms: _89  and  _90
REMARK   34  A    between atoms: _95  and  _97
REMARK   35  A    between atoms: _97  and  _98
REMARK   36  A    between atoms: _97  and  _100
REMARK   37  A    between atoms: _100  and  _101
REMARK   38  A    between atoms: _107  and  _109
REMARK   39  A    between atoms: _120  and  _123
REMARK   40  A    between atoms: _123  and  _124
REMARK   41  A    between atoms: _132  and  _133
REMARK   42  A    between atoms: _141  and  _143
REMARK   43  A    between atoms: _143  and  _144
REMARK   44  A    between atoms: _143  and  _146
REMARK   45  A    between atoms: _146  and  _147
REMARK   46  A    between atoms: _147  and  _148
REMARK   47  A    between atoms: _151  and  _153
REMARK   48  A    between atoms: _153  and  _154
REMARK   49  A    between atoms: _153  and  _156
REMARK   50  A    between atoms: _156  and  _157
REMARK   51  A    between atoms: _162  and  _164
REMARK   52  A    between atoms: _164  and  _165
REMARK   53  A    between atoms: _164  and  _167
REMARK   54  A    between atoms: _167  and  _168
REMARK   55  A    between atoms: _168  and  _169
REMARK   56  A    between atoms: _172  and  _174
REMARK   57  A    between atoms: _174  and  _175
REMARK   58  A    between atoms: _174  and  _177
REMARK   59  A    between atoms: _177  and  _178
REMARK   60  A    between atoms: _181  and  _183
REMARK   61  A    between atoms: _183  and  _184
REMARK   62  A    between atoms: _183  and  _186
REMARK   63  A    between atoms: _186  and  _187
REMARK   64  A    between atoms: _188  and  ZN_404
REMARK   65  A    between atoms: _192  and  _194
REMARK   66  A    between atoms: _194  and  _195
REMARK   67  A    between atoms: _194  and  _197
REMARK   68  A    between atoms: _197  and  _198
REMARK   69  A    between atoms: _201  and  _203
REMARK   70  A    between atoms: _203  and  _204
REMARK   71  A    between atoms: _203  and  _206
REMARK   72  A    between atoms: _209  and  _211
REMARK   73  A    between atoms: _211  and  _212
REMARK   74  A    between atoms: _211  and  _214
REMARK   75  A    between atoms: _214  and  _215
REMARK   76  A    between atoms: _220  and  _222
REMARK   77  A    between atoms: _222  and  _223
REMARK   78  A    between atoms: _222  and  _225
REMARK   79  A    between atoms: _228  and  _230
REMARK   80  A    between atoms: _230  and  _231
REMARK   81  A    between atoms: _233  and  _235
REMARK   82  A    between atoms: _235  and  _236
REMARK   83  A    between atoms: _235  and  _238
REMARK   84  A    between atoms: _241  and  _243
REMARK   85  A    between atoms: _243  and  _244
REMARK   86  A    between atoms: _243  and  _246
REMARK   87  A    between atoms: _246  and  _247
REMARK   88  A    between atoms: _247  and  _248
REMARK   89  A    between atoms: _253  and  _255
REMARK   90  A    between atoms: _255  and  _256
REMARK   91  A    between atoms: _255  and  _258
REMARK   92  A    between atoms: _258  and  _259
REMARK   93  A    between atoms: _262  and  _264
REMARK   94  A    between atoms: _264  and  _265
REMARK   95  A    between atoms: _268  and  _270
REMARK   96  A    between atoms: _270  and  _271
REMARK   97  A    between atoms: _270  and  _273
REMARK   98  A    between atoms: _276  and  _278
REMARK   99  A    between atoms: _278  and  _279
REMARK  100  A    between atoms: _278  and  _281
REMARK  101  A    between atoms: _281  and  _282
REMARK  102  A    between atoms: _285  and  _287
REMARK  103  A    between atoms: _287  and  _288
REMARK  104  A    between atoms: _287  and  _290
REMARK  105  A    between atoms: _290  and  _291
REMARK  106  A    between atoms: _293  and  _295
REMARK  107  A    between atoms: _295  and  _296
REMARK  108  A    between atoms: _295  and  _298
REMARK  109  A    between atoms: _298  and  _299
REMARK  110  A    between atoms: _302  and  _304
REMARK  111  A    between atoms: _304  and  _305
REMARK  112  A    between atoms: _304  and  _307
REMARK  113  A    between atoms: _307  and  _308
REMARK  114  A    between atoms: _311  and  _313
REMARK  115  A    between atoms: _313  and  _314
REMARK  116  A    between atoms: _313  and  _316
REMARK  117  A    between atoms: _316  and  _317
REMARK  118  A    between atoms: _321  and  _322
REMARK  119  A    between atoms: _328  and  _329
REMARK  120  A    between atoms: _334  and  _336
REMARK  121  A    between atoms: _336  and  _337
REMARK  122  A    between atoms: _336  and  _339
REMARK  123  A    between atoms: _339  and  _340
REMARK  124  A    between atoms: _343  and  _345
REMARK  125  A    between atoms: _345  and  _346
REMARK  126  A    between atoms: _345  and  _348
REMARK  127  A    between atoms: _348  and  _349
REMARK  128  A    between atoms: _352  and  _354
REMARK  129  A    between atoms: _354  and  _355
REMARK  130  A    between atoms: _354  and  _357
REMARK  131  A    between atoms: _360  and  _362
REMARK  132  A    between atoms: _362  and  _363
REMARK  133  A    between atoms: _362  and  _365
REMARK  134  A    between atoms: _365  and  _366
REMARK  135  A    between atoms: _376  and  _378
REMARK  136  A    between atoms: _378  and  _379
REMARK  137  A    between atoms: _378  and  _381
REMARK  138  A    between atoms: _381  and  _382
REMARK  139  A    between atoms: _387  and  _389
REMARK  140  A    between atoms: _389  and  _390
REMARK  141  A    between atoms: _389  and  _392
REMARK  142  A    between atoms: _392  and  _393
REMARK  143  A    between atoms: _393  and  _394
REMARK  144  A    between atoms: _394  and  _395
REMARK                            x       y       z     vdW  Elec       q    Type
REMARK                         _______ _______ _______ _____ _____    ______ ____
ROOT
ATOM      1  C   VAL A   1      -6.264  13.933  16.070  0.00  0.00    +0.238 C 
ATOM      2  O   VAL A   1      -5.828  13.267  17.009  0.00  0.00    -0.274 OA
ATOM      3  N   GLY A   2      -5.532  14.814  15.396  0.00  0.00    -0.297 N 
ATOM      4  H   GLY A   2      -5.949  15.314  14.585  0.00  0.00    +0.150 HD
ENDROOT
BRANCH   1   5
ATOM      5  CA  VAL A   1      -7.683  13.739  15.599  0.00  0.00    +0.145 C 
BRANCH   5   6
ATOM      6  CB  VAL A   1      -7.659  12.564  14.583  0.00  0.00    +0.025 C 
ATOM      7  CG2 VAL A   1      -8.342  11.362  15.198  0.00  0.00    +0.002 C 
ATOM      8  CG1 VAL A   1      -8.252  12.929  13.247  0.00  0.00    +0.002 C 
ENDBRANCH   5   6
BRANCH   5   9
ATOM      9  N   VAL A   1      -8.374  14.947  15.135  0.00  0.00    -0.238 NA
ATOM     10  H   VAL A   1      -8.802  14.959  14.187  0.00  0.00    +0.142 HD
ENDBRANCH   5   9
ENDBRANCH   1   5
BRANCH   3  11
ATOM     11  CA  GLY A   2      -4.149  15.089  15.780  0.00  0.00    +0.163 C 
BRANCH  11  12
ATOM     12  C   GLY A   2      -4.033  15.619  17.207  0.00  0.00    +0.229 C 
ATOM     13  O   GLY A   2      -3.087  15.313  17.926  0.00  0.00    -0.286 OA
ENDBRANCH  11  12
ENDBRANCH   3  11
TORSDOF 5
REMARK  Name = ../refined-set-2016/1i9l/1i9l_pocket.pdb
REMARK  144 active torsions:
REMARK  status: ('A' for Active; 'I' for Inactive)
REMARK    1  A    between atoms: _1  and  _3
REMARK    2  A    between atoms: _3  and  _4
REMARK    3  A    between atoms: _3  and  _6
REMARK    4  A    between atoms: _6  and  _7
REMARK    5  A    between atoms: _17  and  _19
REMARK    6  A    between atoms: _19  and  _20
REMARK    7  A    between atoms: _19  and  _22
REMARK    8  A    between atoms: _22  and  _23
REMARK    9  A    between atoms: _28  and  _29
REMARK   10  A    between atoms: _31  and  _33
REMARK   11  A    between atoms: _33  and  _34
REMARK   12  A    between atoms: _33  and  _36
REMARK   13  A    between atoms: _36  and  _37
REMARK   14  A    between atoms: _40  and  _41
REMARK   15  A    between atoms: _46  and  _48
REMARK   16  A    between atoms: _48  and  _49
REMARK   17  A    between atoms: _48  and  _51
REMARK   18  A    between atoms: _51  and  _52
REMARK   19  A    between atoms: _57  and  _59
REMARK   20  A    between atoms: _59  and  _60
REMARK   21  A    between atoms: _63  and  _65
REMARK   22  A    between atoms: _65  and  _66
REMARK   23  A    between atoms: _65  and  _68
REMARK   24  A    between atoms: _68  and  _69
REMARK   25  A    between atoms: _74  and  _76
REMARK   26  A    between atoms: _76  and  _77
REMARK   27  A    between atoms: _76  and  _79
REMARK   28  A    between atoms: _79  and  _80
REMARK   29  A    between atoms: _83  and  _85
REMARK   30  A    between atoms: _85  and  _86
REMARK   31  A    between atoms: _85  and  _88
REMARK   32  A    between atoms: _88  and  _89
REMARK   33  A    between atoms: _89  and  _90
REMARK   34  A    between atoms: _95  and  _97
REMARK   35  A    between atoms: _97  and  _98
REMARK   36  A    between atoms: _97  and  _100
REMARK   37  A    between atoms: _100  and  _101
REMARK   38  A    between atoms: _107  and  _109
REMARK   39  A    between atoms: _120  and  _123
REMARK   40  A    between atoms: _123  and  _124
REMARK   41  A    between atoms: _132  and  _133
REMARK   42  A    between atoms: _141  and  _143
REMARK   43  A    between atoms: _143  and  _144
REMARK   44  A    between atoms: _143  and  _146
REMARK   45  A    between atoms: _146  and  _147
REMARK   46  A    between atoms: _147  and  _148
REMARK   47  A    between atoms: _151  and  _153
REMARK   48  A    between atoms: _153  and  _154
REMARK   49  A    between atoms: _153  and  _156
REMARK   50  A    between atoms: _156  and  _157
REMARK   51  A    between atoms: _162  and  _164
REMARK   52  A    between atoms: _164  and  _165
REMARK   53  A    between atoms: _164  and  _167
REMARK   54  A    between atoms: _167  and  _168
REMARK   55  A    between atoms: _168  and  _169
REMARK   56  A    between atoms: _172  and  _174
REMARK   57  A    between atoms: _174  and  _175
REMARK   58  A    between atoms: _174  and  _177
REMARK   59  A    between atoms: _177  and  _178
REMARK   60  A    between atoms: _181  and  _183
REMARK   61  A    between atoms: _183  and  _184
REMARK   62  A    between atoms: _183  and  _186
REMARK   63  A    between atoms: _186  and  _187
REMARK   64  A    between atoms: _188  and  ZN_404
REMARK   65  A    between atoms: _192  and  _194
REMARK   66  A    between atoms: _194  and  _195
REMARK   67  A    between atoms: _194  and  _197
REMARK   68  A    between atoms: _197  and  _198
REMARK   69  A    between atoms: _201  and  _203
REMARK   70  A    between atoms: _203  and  _204
REMARK   71  A    between atoms: _203  and  _206
REMARK   72  A    between atoms: _209  and  _211
REMARK   73  A    between atoms: _211  and  _212
REMARK   74  A    between atoms: _211  and  _214
REMARK   75  A    between atoms: _214  and  _215
REMARK   76  A    between atoms: _220  and  _222
REMARK   77  A    between atoms: _222  and  _223
REMARK   78  A    between atoms: _222  and  _225
REMARK   79  A    between atoms: _228  and  _230
REMARK   80  A    between atoms: _230  and  _231
REMARK   81  A    between atoms: _233  and  _235
REMARK   82  A    between atoms: _235  and  _236
REMARK   83  A    between atoms: _235  and  _238
REMARK   84  A    between atoms: _241  and  _243
REMARK   85  A    between atoms: _243  and  _244
REMARK   86  A    between atoms: _243  and  _246
REMARK   87  A    between atoms: _246  and  _247
REMARK   88  A    between atoms: _247  and  _248
REMARK   89  A    between atoms: _253  and  _255
REMARK   90  A    between atoms: _255  and  _256
REMARK   91  A    between atoms: _255  and  _258
REMARK   92  A    between atoms: _258  and  _259
REMARK   93  A    between atoms: _262  and  _264
REMARK   94  A    between atoms: _264  and  _265
REMARK   95  A    between atoms: _268  and  _270
REMARK   96  A    between atoms: _270  and  _271
REMARK   97  A    between atoms: _270  and  _273
REMARK   98  A    between atoms: _276  and  _278
REMARK   99  A    between atoms: _278  and  _279
REMARK  100  A    between atoms: _278  and  _281
REMARK  101  A    between atoms: _281  and  _282
REMARK  102  A    between atoms: _285  and  _287
REMARK  103  A    between atoms: _287  and  _288
REMARK  104  A    between atoms: _287  and  _290
REMARK  105  A    between atoms: _290  and  _291
REMARK  106  A    between atoms: _293  and  _295
REMARK  107  A    between atoms: _295  and  _296
REMARK  108  A    between atoms: _295  and  _298
REMARK  109  A    between atoms: _298  and  _299
REMARK  110  A    between atoms: _302  and  _304
REMARK  111  A    between atoms: _304  and  _305
REMARK  112  A    between atoms: _304  and  _307
REMARK  113  A    between atoms: _307  and  _308
REMARK  114  A    between atoms: _311  and  _313
REMARK  115  A    between atoms: _313  and  _314
REMARK  116  A    between atoms: _313  and  _316
REMARK  117  A    between atoms: _316  and  _317
REMARK  118  A    between atoms: _321  and  _322
REMARK  119  A    between atoms: _328  and  _329
REMARK  120  A    between atoms: _334  and  _336
REMARK  121  A    between atoms: _336  and  _337
REMARK  122  A    between atoms: _336  and  _339
REMARK  123  A    between atoms: _339  and  _340
REMARK  124  A    between atoms: _343  and  _345
REMARK  125  A    between atoms: _345  and  _346
REMARK  126  A    between atoms: _345  and  _348
REMARK  127  A    between atoms: _348  and  _349
REMARK  128  A    between atoms: _352  and  _354
REMARK  129  A    between atoms: _354  and  _355
REMARK  130  A    between atoms: _354  and  _357
REMARK  131  A    between atoms: _360  and  _362
REMARK  132  A    between atoms: _362  and  _363
REMARK  133  A    between atoms: _362  and  _365
REMARK  134  A    between atoms: _365  and  _366
REMARK  135  A    between atoms: _376  and  _378
REMARK  136  A    between atoms: _378  and  _379
REMARK  137  A    between atoms: _378  and  _381
REMARK  138  A    between atoms: _381  and  _382
REMARK  139  A    between atoms: _387  and  _389
REMARK  140  A    between atoms: _389  and  _390
REMARK  141  A    between atoms: _389  and  _392
REMARK  142  A    between atoms: _392  and  _393
REMARK  143  A    between atoms: _393  and  _394
REMARK  144  A    between atoms: _394  and  _395
REMARK                            x       y       z     vdW  Elec       q    Type
REMARK                         _______ _______ _______ _____ _____    ______ ____
ROOT
ATOM      1  C   VAL A   1      -2.706  12.399  21.206  0.00  0.00    +0.238 C 
ATOM      2  N   GLN A   2      -2.968  13.574  21.761  0.00  0.00    -0.298 N 
ATOM      3  H   GLN A   2      -3.845  14.074  21.510  0.00  0.00    +0.150 HD
ATOM      4  O   VAL A   1      -1.661  11.788  21.443  0.00  0.00    -0.274 OA
ENDROOT
BRANCH   1   5
ATOM      5  CA  VAL A   1      -3.756  11.828  20.234  0.00  0.00    +0.145 C 
BRANCH   5   6
ATOM      6  CB  VAL A   1      -3.043  11.229  18.951  0.00  0.00    +0.025 C 
ATOM      7  CG2 VAL A   1      -4.026  10.423  18.120  0.00  0.00    +0.002 C 
ATOM      8  CG1 VAL A   1      -2.410  12.322  18.112  0.00  0.00    +0.002 C 
ENDBRANCH   5   6
BRANCH   5   9
ATOM      9  N   VAL A   1      -4.866  12.749  19.918  0.00  0.00    -0.238 NA
ATOM     10  H   VAL A   1      -4.899  13.201  18.982  0.00  0.00    +0.142 HD
ENDBRANCH   5   9
ENDBRANCH   1   5
BRANCH   2  11
ATOM     11  CA  GLN A   2      -2.045  14.177  22.719  0.00  0.00    +0.137 C 
BRANCH  11  12
ATOM     12  C   GLN A   2      -2.724  14.224  24.111  0.00  0.00    +0.227 C 
ATOM     13  O   GLN A   2      -2.202  14.817  25.063  0.00  0.00    -0.286 OA
ENDBRANCH  11  12
BRANCH  11  14
ATOM     14  CB  GLN A   2      -1.626  15.579  22.231  0.00  0.00    +0.037 C 
BRANCH  14  15
ATOM     15  CG  GLN A   2      -0.558  15.545  21.154  0.00  0.00    +0.087 C 
BRANCH  15  16
ATOM     16  CD  GLN A   2      -0.383  16.877  20.455  0.00  0.00    +0.219 C 
ATOM     17  OE1 GLN A   2      -0.043  17.883  21.072  0.00  0.00    -0.275 OA
ATOM     18  NE2 GLN A   2      -0.610  16.884  19.152  0.00  0.00    -0.329 N 
ATOM     19 HE21 GLN A   2      -0.896  16.008  18.669  0.00  0.00    +0.145 HD
ATOM     20 HE22 GLN A   2      -0.502  17.765  18.610  0.00  0.00    +0.145 HD
ENDBRANCH  15  16
ENDBRANCH  14  15
ENDBRANCH  11  14
ENDBRANCH   2  11
TORSDOF 8
REMARK  Name = ../refined-set-2016/1i9l/1i9l_pocket.pdb
REMARK  144 active torsions:
REMARK  status: ('A' for Active; 'I' for Inactive)
REMARK    1  A    between atoms: _1  and  _3
REMARK    2  A    between atoms: _3  and  _4
REMARK    3  A    between atoms: _3  and  _6
REMARK    4  A    between atoms: _6  and  _7
REMARK    5  A    between atoms: _17  and  _19
REMARK    6  A    between atoms: _19  and  _20
REMARK    7  A    between atoms: _19  and  _22
REMARK    8  A    between atoms: _22  and  _23
REMARK    9  A    between atoms: _28  and  _29
REMARK   10  A    between atoms: _31  and  _33
REMARK   11  A    between atoms: _33  and  _34
REMARK   12  A    between atoms: _33  and  _36
REMARK   13  A    between atoms: _36  and  _37
REMARK   14  A    between atoms: _40  and  _41
REMARK   15  A    between atoms: _46  and  _48
REMARK   16  A    between atoms: _48  and  _49
REMARK   17  A    between atoms: _48  and  _51
REMARK   18  A    between atoms: _51  and  _52
REMARK   19  A    between atoms: _57  and  _59
REMARK   20  A    between atoms: _59  and  _60
REMARK   21  A    between atoms: _63  and  _65
REMARK   22  A    between atoms: _65  and  _66
REMARK   23  A    between atoms: _65  and  _68
REMARK   24  A    between atoms: _68  and  _69
REMARK   25  A    between atoms: _74  and  _76
REMARK   26  A    between atoms: _76  and  _77
REMARK   27  A    between atoms: _76  and  _79
REMARK   28  A    between atoms: _79  and  _80
REMARK   29  A    between atoms: _83  and  _85
REMARK   30  A    between atoms: _85  and  _86
REMARK   31  A    between atoms: _85  and  _88
REMARK   32  A    between atoms: _88  and  _89
REMARK   33  A    between atoms: _89  and  _90
REMARK   34  A    between atoms: _95  and  _97
REMARK   35  A    between atoms: _97  and  _98
REMARK   36  A    between atoms: _97  and  _100
REMARK   37  A    between atoms: _100  and  _101
REMARK   38  A    between atoms: _107  and  _109
REMARK   39  A    between atoms: _120  and  _123
REMARK   40  A    between atoms: _123  and  _124
REMARK   41  A    between atoms: _132  and  _133
REMARK   42  A    between atoms: _141  and  _143
REMARK   43  A    between atoms: _143  and  _144
REMARK   44  A    between atoms: _143  and  _146
REMARK   45  A    between atoms: _146  and  _147
REMARK   46  A    between atoms: _147  and  _148
REMARK   47  A    between atoms: _151  and  _153
REMARK   48  A    between atoms: _153  and  _154
REMARK   49  A    between atoms: _153  and  _156
REMARK   50  A    between atoms: _156  and  _157
REMARK   51  A    between atoms: _162  and  _164
REMARK   52  A    between atoms: _164  and  _165
REMARK   53  A    between atoms: _164  and  _167
REMARK   54  A    between atoms: _167  and  _168
REMARK   55  A    between atoms: _168  and  _169
REMARK   56  A    between atoms: _172  and  _174
REMARK   57  A    between atoms: _174  and  _175
REMARK   58  A    between atoms: _174  and  _177
REMARK   59  A    between atoms: _177  and  _178
REMARK   60  A    between atoms: _181  and  _183
REMARK   61  A    between atoms: _183  and  _184
REMARK   62  A    between atoms: _183  and  _186
REMARK   63  A    between atoms: _186  and  _187
REMARK   64  A    between atoms: _188  and  ZN_404
REMARK   65  A    between atoms: _192  and  _194
REMARK   66  A    between atoms: _194  and  _195
REMARK   67  A    between atoms: _194  and  _197
REMARK   68  A    between atoms: _197  and  _198
REMARK   69  A    between atoms: _201  and  _203
REMARK   70  A    between atoms: _203  and  _204
REMARK   71  A    between atoms: _203  and  _206
REMARK   72  A    between atoms: _209  and  _211
REMARK   73  A    between atoms: _211  and  _212
REMARK   74  A    between atoms: _211  and  _214
REMARK   75  A    between atoms: _214  and  _215
REMARK   76  A    between atoms: _220  and  _222
REMARK   77  A    between atoms: _222  and  _223
REMARK   78  A    between atoms: _222  and  _225
REMARK   79  A    between atoms: _228  and  _230
REMARK   80  A    between atoms: _230  and  _231
REMARK   81  A    between atoms: _233  and  _235
REMARK   82  A    between atoms: _235  and  _236
REMARK   83  A    between atoms: _235  and  _238
REMARK   84  A    between atoms: _241  and  _243
REMARK   85  A    between atoms: _243  and  _244
REMARK   86  A    between atoms: _243  and  _246
REMARK   87  A    between atoms: _246  and  _247
REMARK   88  A    between atoms: _247  and  _248
REMARK   89  A    between atoms: _253  and  _255
REMARK   90  A    between atoms: _255  and  _256
REMARK   91  A    between atoms: _255  and  _258
REMARK   92  A    between atoms: _258  and  _259
REMARK   93  A    between atoms: _262  and  _264
REMARK   94  A    between atoms: _264  and  _265
REMARK   95  A    between atoms: _268  and  _270
REMARK   96  A    between atoms: _270  and  _271
REMARK   97  A    between atoms: _270  and  _273
REMARK   98  A    between atoms: _276  and  _278
REMARK   99  A    between atoms: _278  and  _279
REMARK  100  A    between atoms: _278  and  _281
REMARK  101  A    between atoms: _281  and  _282
REMARK  102  A    between atoms: _285  and  _287
REMARK  103  A    between atoms: _287  and  _288
REMARK  104  A    between atoms: _287  and  _290
REMARK  105  A    between atoms: _290  and  _291
REMARK  106  A    between atoms: _293  and  _295
REMARK  107  A    between atoms: _295  and  _296
REMARK  108  A    between atoms: _295  and  _298
REMARK  109  A    between atoms: _298  and  _299
REMARK  110  A    between atoms: _302  and  _304
REMARK  111  A    between atoms: _304  and  _305
REMARK  112  A    between atoms: _304  and  _307
REMARK  113  A    between atoms: _307  and  _308
REMARK  114  A    between atoms: _311  and  _313
REMARK  115  A    between atoms: _313  and  _314
REMARK  116  A    between atoms: _313  and  _316
REMARK  117  A    between atoms: _316  and  _317
REMARK  118  A    between atoms: _321  and  _322
REMARK  119  A    between atoms: _328  and  _329
REMARK  120  A    between atoms: _334  and  _336
REMARK  121  A    between atoms: _336  and  _337
REMARK  122  A    between atoms: _336  and  _339
REMARK  123  A    between atoms: _339  and  _340
REMARK  124  A    between atoms: _343  and  _345
REMARK  125  A    between atoms: _345  and  _346
REMARK  126  A    between atoms: _345  and  _348
REMARK  127  A    between atoms: _348  and  _349
REMARK  128  A    between atoms: _352  and  _354
REMARK  129  A    between atoms: _354  and  _355
REMARK  130  A    between atoms: _354  and  _357
REMARK  131  A    between atoms: _360  and  _362
REMARK  132  A    between atoms: _362  and  _363
REMARK  133  A    between atoms: _362  and  _365
REMARK  134  A    between atoms: _365  and  _366
REMARK  135  A    between atoms: _376  and  _378
REMARK  136  A    between atoms: _378  and  _379
REMARK  137  A    between atoms: _378  and  _381
REMARK  138  A    between atoms: _381  and  _382
REMARK  139  A    between atoms: _387  and  _389
REMARK  140  A    between atoms: _389  and  _390
REMARK  141  A    between atoms: _389  and  _392
REMARK  142  A    between atoms: _392  and  _393
REMARK  143  A    between atoms: _393  and  _394
REMARK  144  A    between atoms: _394  and  _395
REMARK                            x       y       z     vdW  Elec       q    Type
REMARK                         _______ _______ _______ _____ _____    ______ ____
ROOT
ATOM      1  C   ALA A   2     -12.537   4.482  21.061  0.00  0.00    +0.241 C 
ATOM      2  N   VAL A   3     -12.080   3.253  21.272  0.00  0.00    -0.297 N 
ATOM      3  H   VAL A   3     -11.617   3.032  22.176  0.00  0.00    +0.150 HD
ATOM      4  O   ALA A   2     -12.988   4.854  19.972  0.00  0.00    -0.273 OA
ENDROOT
BRANCH   1   5
ATOM      5  CA  ALA A   2     -12.354   5.473  22.207  0.00  0.00    +0.149 C 
ATOM      6  CB  ALA A   2     -13.710   6.031  22.661  0.00  0.00    +0.031 C 
BRANCH   5   9
ATOM      7  C   LEU A   1     -10.600   7.159  22.435  0.00  0.00    +0.238 C 
ATOM      8  O   LEU A   1     -10.430   6.936  23.622  0.00  0.00    -0.274 OA
ATOM      9  N   ALA A   2     -11.494   6.531  21.688  0.00  0.00    -0.297 N 
ATOM     10  H   ALA A   2     -11.587   6.803  20.689  0.00  0.00    +0.150 HD
BRANCH   7  11
ATOM     11  CA  LEU A   1      -9.765   8.182  21.713  0.00  0.00    +0.145 C 
BRANCH  11  12
ATOM     12  N   LEU A   1      -9.124   9.140  22.599  0.00  0.00    -0.238 NA
ATOM     13  H   LEU A   1      -8.506   8.798  23.363  0.00  0.00    +0.142 HD
ENDBRANCH  11  12
BRANCH  11  14
ATOM     14  CB  LEU A   1      -8.717   7.436  20.895  0.00  0.00    +0.026 C 
BRANCH  14  15
ATOM     15  CG  LEU A   1      -7.781   8.270  20.028  0.00  0.00    +0.002 C 
ATOM     16  CD2 LEU A   1      -6.676   7.391  19.472  0.00  0.00    +0.000 C 
ATOM     17  CD1 LEU A   1      -8.568   8.945  18.909  0.00  0.00    +0.000 C 
ENDBRANCH  14  15
ENDBRANCH  11  14
ENDBRANCH   7  11
ENDBRANCH   5   9
ENDBRANCH   1   5
BRANCH   2  18
ATOM     18  CA  VAL A   3     -12.213   2.204  20.262  0.00  0.00    +0.149 C 
BRANCH  18  19
ATOM     19  C   VAL A   3     -13.203   1.161  20.768  0.00  0.00    +0.241 C 
ATOM     20  O   VAL A   3     -13.133   0.723  21.919  0.00  0.00    -0.273 OA
ATOM     21  N   LEU A   4     -14.146   0.806  19.906  0.00  0.00    -0.298 N 
ATOM     22  H   LEU A   4     -14.156   1.247  18.964  0.00  0.00    +0.150 HD
BRANCH  21  23
ATOM     23  CA  LEU A   4     -15.169  -0.179  20.230  0.00  0.00    +0.137 C 
BRANCH  23  24
ATOM     24  C   LEU A   4     -14.697  -1.501  19.620  0.00  0.00    +0.227 C 
ATOM     25  O   LEU A   4     -14.587  -1.615  18.404  0.00  0.00    -0.286 OA
ENDBRANCH  23  24
BRANCH  23  26
ATOM     26  CB  LEU A   4     -16.504   0.275  19.625  0.00  0.00    +0.028 C 
BRANCH  26  27
ATOM     27  CG  LEU A   4     -17.783  -0.492  19.932  0.00  0.00    +0.002 C 
ATOM     28  CD2 LEU A   4     -18.013  -0.524  21.421  0.00  0.00    +0.000 C 
ATOM     29  CD1 LEU A   4     -18.961   0.189  19.207  0.00  0.00    +0.000 C 
ENDBRANCH  26  27
ENDBRANCH  23  26
ENDBRANCH  21  23
ENDBRANCH  18  19
BRANCH  18  30
ATOM     30  CB  VAL A   3     -10.862   1.516  19.932  0.00  0.00    +0.027 C 
ATOM     31  CG2 VAL A   3      -9.855   2.536  19.474  0.00  0.00    +0.002 C 
ATOM     32  CG1 VAL A   3     -11.061   0.429  18.871  0.00  0.00    +0.002 C 
ENDBRANCH  18  30
ENDBRANCH   2  18
TORSDOF 13
REMARK  Name = ../refined-set-2016/1i9l/1i9l_pocket.pdb
REMARK  144 active torsions:
REMARK  status: ('A' for Active; 'I' for Inactive)
REMARK    1  A    between atoms: _1  and  _3
REMARK    2  A    between atoms: _3  and  _4
REMARK    3  A    between atoms: _3  and  _6
REMARK    4  A    between atoms: _6  and  _7
REMARK    5  A    between atoms: _17  and  _19
REMARK    6  A    between atoms: _19  and  _20
REMARK    7  A    between atoms: _19  and  _22
REMARK    8  A    between atoms: _22  and  _23
REMARK    9  A    between atoms: _28  and  _29
REMARK   10  A    between atoms: _31  and  _33
REMARK   11  A    between atoms: _33  and  _34
REMARK   12  A    between atoms: _33  and  _36
REMARK   13  A    between atoms: _36  and  _37
REMARK   14  A    between atoms: _40  and  _41
REMARK   15  A    between atoms: _46  and  _48
REMARK   16  A    between atoms: _48  and  _49
REMARK   17  A    between atoms: _48  and  _51
REMARK   18  A    between atoms: _51  and  _52
REMARK   19  A    between atoms: _57  and  _59
REMARK   20  A    between atoms: _59  and  _60
REMARK   21  A    between atoms: _63  and  _65
REMARK   22  A    between atoms: _65  and  _66
REMARK   23  A    between atoms: _65  and  _68
REMARK   24  A    between atoms: _68  and  _69
REMARK   25  A    between atoms: _74  and  _76
REMARK   26  A    between atoms: _76  and  _77
REMARK   27  A    between atoms: _76  and  _79
REMARK   28  A    between atoms: _79  and  _80
REMARK   29  A    between atoms: _83  and  _85
REMARK   30  A    between atoms: _85  and  _86
REMARK   31  A    between atoms: _85  and  _88
REMARK   32  A    between atoms: _88  and  _89
REMARK   33  A    between atoms: _89  and  _90
REMARK   34  A    between atoms: _95  and  _97
REMARK   35  A    between atoms: _97  and  _98
REMARK   36  A    between atoms: _97  and  _100
REMARK   37  A    between atoms: _100  and  _101
REMARK   38  A    between atoms: _107  and  _109
REMARK   39  A    between atoms: _120  and  _123
REMARK   40  A    between atoms: _123  and  _124
REMARK   41  A    between atoms: _132  and  _133
REMARK   42  A    between atoms: _141  and  _143
REMARK   43  A    between atoms: _143  and  _144
REMARK   44  A    between atoms: _143  and  _146
REMARK   45  A    between atoms: _146  and  _147
REMARK   46  A    between atoms: _147  and  _148
REMARK   47  A    between atoms: _151  and  _153
REMARK   48  A    between atoms: _153  and  _154
REMARK   49  A    between atoms: _153  and  _156
REMARK   50  A    between atoms: _156  and  _157
REMARK   51  A    between atoms: _162  and  _164
REMARK   52  A    between atoms: _164  and  _165
REMARK   53  A    between atoms: _164  and  _167
REMARK   54  A    between atoms: _167  and  _168
REMARK   55  A    between atoms: _168  and  _169
REMARK   56  A    between atoms: _172  and  _174
REMARK   57  A    between atoms: _174  and  _175
REMARK   58  A    between atoms: _174  and  _177
REMARK   59  A    between atoms: _177  and  _178
REMARK   60  A    between atoms: _181  and  _183
REMARK   61  A    between atoms: _183  and  _184
REMARK   62  A    between atoms: _183  and  _186
REMARK   63  A    between atoms: _186  and  _187
REMARK   64  A    between atoms: _188  and  ZN_404
REMARK   65  A    between atoms: _192  and  _194
REMARK   66  A    between atoms: _194  and  _195
REMARK   67  A    between atoms: _194  and  _197
REMARK   68  A    between atoms: _197  and  _198
REMARK   69  A    between atoms: _201  and  _203
REMARK   70  A    between atoms: _203  and  _204
REMARK   71  A    between atoms: _203  and  _206
REMARK   72  A    between atoms: _209  and  _211
REMARK   73  A    between atoms: _211  and  _212
REMARK   74  A    between atoms: _211  and  _214
REMARK   75  A    between atoms: _214  and  _215
REMARK   76  A    between atoms: _220  and  _222
REMARK   77  A    between atoms: _222  and  _223
REMARK   78  A    between atoms: _222  and  _225
REMARK   79  A    between atoms: _228  and  _230
REMARK   80  A    between atoms: _230  and  _231
REMARK   81  A    between atoms: _233  and  _235
REMARK   82  A    between atoms: _235  and  _236
REMARK   83  A    between atoms: _235  and  _238
REMARK   84  A    between atoms: _241  and  _243
REMARK   85  A    between atoms: _243  and  _244
REMARK   86  A    between atoms: _243  and  _246
REMARK   87  A    between atoms: _246  and  _247
REMARK   88  A    between atoms: _247  and  _248
REMARK   89  A    between atoms: _253  and  _255
REMARK   90  A    between atoms: _255  and  _256
REMARK   91  A    between atoms: _255  and  _258
REMARK   92  A    between atoms: _258  and  _259
REMARK   93  A    between atoms: _262  and  _264
REMARK   94  A    between atoms: _264  and  _265
REMARK   95  A    between atoms: _268  and  _270
REMARK   96  A    between atoms: _270  and  _271
REMARK   97  A    between atoms: _270  and  _273
REMARK   98  A    between atoms: _276  and  _278
REMARK   99  A    between atoms: _278  and  _279
REMARK  100  A    between atoms: _278  and  _281
REMARK  101  A    between atoms: _281  and  _282
REMARK  102  A    between atoms: _285  and  _287
REMARK  103  A    between atoms: _287  and  _288
REMARK  104  A    between atoms: _287  and  _290
REMARK  105  A    between atoms: _290  and  _291
REMARK  106  A    between atoms: _293  and  _295
REMARK  107  A    between atoms: _295  and  _296
REMARK  108  A    between atoms: _295  and  _298
REMARK  109  A    between atoms: _298  and  _299
REMARK  110  A    between atoms: _302  and  _304
REMARK  111  A    between atoms: _304  and  _305
REMARK  112  A    between atoms: _304  and  _307
REMARK  113  A    between atoms: _307  and  _308
REMARK  114  A    between atoms: _311  and  _313
REMARK  115  A    between atoms: _313  and  _314
REMARK  116  A    between atoms: _313  and  _316
REMARK  117  A    between atoms: _316  and  _317
REMARK  118  A    between atoms: _321  and  _322
REMARK  119  A    between atoms: _328  and  _329
REMARK  120  A    between atoms: _334  and  _336
REMARK  121  A    between atoms: _336  and  _337
REMARK  122  A    between atoms: _336  and  _339
REMARK  123  A    between atoms: _339  and  _340
REMARK  124  A    between atoms: _343  and  _345
REMARK  125  A    between atoms: _345  and  _346
REMARK  126  A    between atoms: _345  and  _348
REMARK  127  A    between atoms: _348  and  _349
REMARK  128  A    between atoms: _352  and  _354
REMARK  129  A    between atoms: _354  and  _355
REMARK  130  A    between atoms: _354  and  _357
REMARK  131  A    between atoms: _360  and  _362
REMARK  132  A    between atoms: _362  and  _363
REMARK  133  A    between atoms: _362  and  _365
REMARK  134  A    between atoms: _365  and  _366
REMARK  135  A    between atoms: _376  and  _378
REMARK  136  A    between atoms: _378  and  _379
REMARK  137  A    between atoms: _378  and  _381
REMARK  138  A    between atoms: _381  and  _382
REMARK  139  A    between atoms: _387  and  _389
REMARK  140  A    between atoms: _389  and  _390
REMARK  141  A    between atoms: _389  and  _392
REMARK  142  A    between atoms: _392  and  _393
REMARK  143  A    between atoms: _393  and  _394
REMARK  144  A    between atoms: _394  and  _395
REMARK                            x       y       z     vdW  Elec       q    Type
REMARK                         _______ _______ _______ _____ _____    ______ ____
ROOT
ATOM      1  C   THR A   4       0.991   0.786  16.732  0.00  0.00    +0.246 C 
ATOM      2  O   THR A   4       0.508   1.717  17.407  0.00  0.00    -0.273 OA
ATOM      3  N   PRO A   5       2.216   0.871  16.170  0.00  0.00    -0.272 N 
ATOM      4  CA  PRO A   5       2.977   2.108  16.306  0.00  0.00    +0.152 C 
ATOM      5  CB  PRO A   5       4.165   1.860  15.387  0.00  0.00    +0.031 C 
ATOM      6  CG  PRO A   5       4.415   0.433  15.576  0.00  0.00    +0.024 C 
ATOM      7  CD  PRO A   5       3.028  -0.155  15.492  0.00  0.00    +0.094 C 
ENDROOT
BRANCH   4   8
ATOM      8  C   PRO A   5       2.081   3.231  15.797  0.00  0.00    +0.244 C 
ATOM      9  N   PRO A   6       2.177   4.422  16.405  0.00  0.00    -0.272 N 
ATOM     10  CA  PRO A   6       3.055   4.805  17.518  0.00  0.00    +0.152 C 
ATOM     11  CB  PRO A   6       3.125   6.326  17.365  0.00  0.00    +0.031 C 
ATOM     12  CG  PRO A   6       1.747   6.657  16.908  0.00  0.00    +0.024 C 
ATOM     13  CD  PRO A   6       1.450   5.597  15.885  0.00  0.00    +0.094 C 
ATOM     14  O   PRO A   5       1.312   3.037  14.844  0.00  0.00    -0.273 OA
BRANCH  10  15
ATOM     15  C   PRO A   6       2.680   4.376  18.968  0.00  0.00    +0.241 C 
ATOM     16  O   PRO A   6       3.327   4.823  19.922  0.00  0.00    -0.273 OA
ATOM     17  N   LEU A   7       1.645   3.541  19.116  0.00  0.00    -0.297 N 
ATOM     18  H   LEU A   7       1.126   3.252  18.262  0.00  0.00    +0.150 HD
BRANCH  17  19
ATOM     19  CA  LEU A   7       1.193   3.005  20.414  0.00  0.00    +0.149 C 
BRANCH  19  20
ATOM     20  C   LEU A   7       0.876   4.040  21.525  0.00  0.00    +0.241 C 
ATOM     21  O   LEU A   7       1.103   3.773  22.714  0.00  0.00    -0.273 OA
ATOM     22  N   LEU A   8       0.340   5.198  21.147  0.00  0.00    -0.298 N 
ATOM     23  H   LEU A   8       0.155   5.360  20.137  0.00  0.00    +0.150 HD
BRANCH  22  24
ATOM     24  CA  LEU A   8       0.001   6.254  22.109  0.00  0.00    +0.137 C 
BRANCH  24  25
ATOM     25  C   LEU A   8      -1.065   5.797  23.137  0.00  0.00    +0.227 C 
ATOM     26  O   LEU A   8      -2.091   5.230  22.772  0.00  0.00    -0.286 OA
ENDBRANCH  24  25
BRANCH  24  27
ATOM     27  CB  LEU A   8      -0.477   7.505  21.357  0.00  0.00    +0.028 C 
BRANCH  27  28
ATOM     28  CG  LEU A   8       0.443   7.952  20.206  0.00  0.00    +0.002 C 
ATOM     29  CD2 LEU A   8       1.798   8.382  20.736  0.00  0.00    +0.000 C 
ATOM     30  CD1 LEU A   8      -0.198   9.098  19.432  0.00  0.00    +0.000 C 
ENDBRANCH  27  28
ENDBRANCH  24  27
ENDBRANCH  22  24
ENDBRANCH  19  20
BRANCH  19  31
ATOM     31  CB  LEU A   7       2.235   2.015  20.949  0.00  0.00    +0.029 C 
BRANCH  31  32
ATOM     32  CG  LEU A   7       2.703   0.848  20.086  0.00  0.00    +0.002 C 
ATOM     33  CD2 LEU A   7       4.059   0.367  20.601  0.00  0.00    +0.000 C 
ATOM     34  CD1 LEU A   7       1.678  -0.267  20.106  0.00  0.00    +0.000 C 
ENDBRANCH  31  32
ENDBRANCH  19  31
ENDBRANCH  17  19
ENDBRANCH  10  15
ENDBRANCH   4   8
BRANCH   1  35
ATOM     35  CA  THR A   4       0.216  -0.532  16.552  0.00  0.00    +0.176 C 
BRANCH  35  38
ATOM     36  C   THR A   3      -1.098  -1.678  18.300  0.00  0.00    +0.243 C 
ATOM     37  O   THR A   3      -0.591  -2.783  18.085  0.00  0.00    -0.273 OA
ATOM     38  N   THR A   4      -0.788  -0.574  17.614  0.00  0.00    -0.295 N 
ATOM     39  H   THR A   4      -1.290   0.306  17.849  0.00  0.00    +0.150 HD
BRANCH  36  40
ATOM     40  CA  THR A   3      -2.147  -1.507  19.401  0.00  0.00    +0.176 C 
BRANCH  40  43
ATOM     41  C   LEU A   2      -2.421   0.753  20.230  0.00  0.00    +0.241 C 
ATOM     42  O   LEU A   2      -1.434   0.621  20.980  0.00  0.00    -0.273 OA
ATOM     43  N   THR A   3      -2.833  -0.217  19.416  0.00  0.00    -0.295 N 
ATOM     44  H   THR A   3      -3.646  -0.056  18.788  0.00  0.00    +0.150 HD
BRANCH  41  45
ATOM     45  CA  LEU A   2      -3.201   2.088  20.225  0.00  0.00    +0.149 C 
BRANCH  45  48
ATOM     46  C   SER A   1      -3.691   1.906  22.626  0.00  0.00    +0.241 C 
ATOM     47  O   SER A   1      -4.494   0.981  22.454  0.00  0.00    -0.274 OA
ATOM     48  N   LEU A   2      -3.073   2.534  21.621  0.00  0.00    -0.297 N 
ATOM     49  H   LEU A   2      -2.483   3.364  21.833  0.00  0.00    +0.150 HD
BRANCH  46  50
ATOM     50  CA  SER A   1      -3.372   2.425  24.045  0.00  0.00    +0.174 C 
BRANCH  50  51
ATOM     51  N   SER A   1      -4.073   1.713  25.123  0.00  0.00    -0.236 NA
ATOM     52  H   SER A   1      -4.277   0.699  25.018  0.00  0.00    +0.142 HD
ENDBRANCH  50  51
BRANCH  50  53
ATOM     53  CB  SER A   1      -1.873   2.255  24.255  0.00  0.00    +0.163 C 
BRANCH  53  54
ATOM     54  OG  SER A   1      -1.535   0.887  24.087  0.00  0.00    -0.380 OA
ATOM     55  H   SER A   1      -1.779   0.598  23.172  0.00  0.00    +0.211 HD
ENDBRANCH  53  54
ENDBRANCH  50  53
ENDBRANCH  46  50
ENDBRANCH  45  48
BRANCH  45  56
ATOM     56  CB  LEU A   2      -2.512   3.074  19.257  0.00  0.00    +0.029 C 
BRANCH  56  57
ATOM     57  CG  LEU A   2      -3.110   4.483  19.155  0.00  0.00    +0.002 C 
ATOM     58  CD2 LEU A   2      -4.532   4.399  18.614  0.00  0.00    +0.000 C 
ATOM     59  CD1 LEU A   2      -2.253   5.376  18.270  0.00  0.00    +0.000 C 
ENDBRANCH  56  57
ENDBRANCH  45  56
ENDBRANCH  41  45
ENDBRANCH  40  43
BRANCH  40  60
ATOM     60  CB  THR A   3      -3.143  -2.673  19.365  0.00  0.00    +0.137 C 
ATOM     61  CG2 THR A   3      -4.122  -2.567  20.514  0.00  0.00    +0.034 C 
BRANCH  60  62
ATOM     62  OG1 THR A   3      -3.857  -2.653  18.128  0.00  0.00    -0.382 OA
ATOM     63  HG1 THR A   3      -4.499  -3.406  18.107  0.00  0.00    +0.210 HD
ENDBRANCH  60  62
ENDBRANCH  40  60
ENDBRANCH  36  40
ENDBRANCH  35  38
BRANCH  35  64
ATOM     64  CB  THR A   4      -0.441  -0.520  15.121  0.00  0.00    +0.137 C 
ATOM     65  CG2 THR A   4      -1.300  -1.744  14.895  0.00  0.00    +0.034 C 
BRANCH  64  66
ATOM     66  OG1 THR A   4      -1.264   0.642  14.977  0.00  0.00    -0.382 OA
ATOM     67  HG1 THR A   4      -0.709   1.454  15.091  0.00  0.00    +0.210 HD
ENDBRANCH  64  66
ENDBRANCH  35  64
ENDBRANCH   1  35
TORSDOF 26
REMARK  Name = ../refined-set-2016/1i9l/1i9l_pocket.pdb
REMARK  144 active torsions:
REMARK  status: ('A' for Active; 'I' for Inactive)
REMARK    1  A    between atoms: _1  and  _3
REMARK    2  A    between atoms: _3  and  _4
REMARK    3  A    between atoms: _3  and  _6
REMARK    4  A    between atoms: _6  and  _7
REMARK    5  A    between atoms: _17  and  _19
REMARK    6  A    between atoms: _19  and  _20
REMARK    7  A    between atoms: _19  and  _22
REMARK    8  A    between atoms: _22  and  _23
REMARK    9  A    between atoms: _28  and  _29
REMARK   10  A    between atoms: _31  and  _33
REMARK   11  A    between atoms: _33  and  _34
REMARK   12  A    between atoms: _33  and  _36
REMARK   13  A    between atoms: _36  and  _37
REMARK   14  A    between atoms: _40  and  _41
REMARK   15  A    between atoms: _46  and  _48
REMARK   16  A    between atoms: _48  and  _49
REMARK   17  A    between atoms: _48  and  _51
REMARK   18  A    between atoms: _51  and  _52
REMARK   19  A    between atoms: _57  and  _59
REMARK   20  A    between atoms: _59  and  _60
REMARK   21  A    between atoms: _63  and  _65
REMARK   22  A    between atoms: _65  and  _66
REMARK   23  A    between atoms: _65  and  _68
REMARK   24  A    between atoms: _68  and  _69
REMARK   25  A    between atoms: _74  and  _76
REMARK   26  A    between atoms: _76  and  _77
REMARK   27  A    between atoms: _76  and  _79
REMARK   28  A    between atoms: _79  and  _80
REMARK   29  A    between atoms: _83  and  _85
REMARK   30  A    between atoms: _85  and  _86
REMARK   31  A    between atoms: _85  and  _88
REMARK   32  A    between atoms: _88  and  _89
REMARK   33  A    between atoms: _89  and  _90
REMARK   34  A    between atoms: _95  and  _97
REMARK   35  A    between atoms: _97  and  _98
REMARK   36  A    between atoms: _97  and  _100
REMARK   37  A    between atoms: _100  and  _101
REMARK   38  A    between atoms: _107  and  _109
REMARK   39  A    between atoms: _120  and  _123
REMARK   40  A    between atoms: _123  and  _124
REMARK   41  A    between atoms: _132  and  _133
REMARK   42  A    between atoms: _141  and  _143
REMARK   43  A    between atoms: _143  and  _144
REMARK   44  A    between atoms: _143  and  _146
REMARK   45  A    between atoms: _146  and  _147
REMARK   46  A    between atoms: _147  and  _148
REMARK   47  A    between atoms: _151  and  _153
REMARK   48  A    between atoms: _153  and  _154
REMARK   49  A    between atoms: _153  and  _156
REMARK   50  A    between atoms: _156  and  _157
REMARK   51  A    between atoms: _162  and  _164
REMARK   52  A    between atoms: _164  and  _165
REMARK   53  A    between atoms: _164  and  _167
REMARK   54  A    between atoms: _167  and  _168
REMARK   55  A    between atoms: _168  and  _169
REMARK   56  A    between atoms: _172  and  _174
REMARK   57  A    between atoms: _174  and  _175
REMARK   58  A    between atoms: _174  and  _177
REMARK   59  A    between atoms: _177  and  _178
REMARK   60  A    between atoms: _181  and  _183
REMARK   61  A    between atoms: _183  and  _184
REMARK   62  A    between atoms: _183  and  _186
REMARK   63  A    between atoms: _186  and  _187
REMARK   64  A    between atoms: _188  and  ZN_404
REMARK   65  A    between atoms: _192  and  _194
REMARK   66  A    between atoms: _194  and  _195
REMARK   67  A    between atoms: _194  and  _197
REMARK   68  A    between atoms: _197  and  _198
REMARK   69  A    between atoms: _201  and  _203
REMARK   70  A    between atoms: _203  and  _204
REMARK   71  A    between atoms: _203  and  _206
REMARK   72  A    between atoms: _209  and  _211
REMARK   73  A    between atoms: _211  and  _212
REMARK   74  A    between atoms: _211  and  _214
REMARK   75  A    between atoms: _214  and  _215
REMARK   76  A    between atoms: _220  and  _222
REMARK   77  A    between atoms: _222  and  _223
REMARK   78  A    between atoms: _222  and  _225
REMARK   79  A    between atoms: _228  and  _230
REMARK   80  A    between atoms: _230  and  _231
REMARK   81  A    between atoms: _233  and  _235
REMARK   82  A    between atoms: _235  and  _236
REMARK   83  A    between atoms: _235  and  _238
REMARK   84  A    between atoms: _241  and  _243
REMARK   85  A    between atoms: _243  and  _244
REMARK   86  A    between atoms: _243  and  _246
REMARK   87  A    between atoms: _246  and  _247
REMARK   88  A    between atoms: _247  and  _248
REMARK   89  A    between atoms: _253  and  _255
REMARK   90  A    between atoms: _255  and  _256
REMARK   91  A    between atoms: _255  and  _258
REMARK   92  A    between atoms: _258  and  _259
REMARK   93  A    between atoms: _262  and  _264
REMARK   94  A    between atoms: _264  and  _265
REMARK   95  A    between atoms: _268  and  _270
REMARK   96  A    between atoms: _270  and  _271
REMARK   97  A    between atoms: _270  and  _273
REMARK   98  A    between atoms: _276  and  _278
REMARK   99  A    between atoms: _278  and  _279
REMARK  100  A    between atoms: _278  and  _281
REMARK  101  A    between atoms: _281  and  _282
REMARK  102  A    between atoms: _285  and  _287
REMARK  103  A    between atoms: _287  and  _288
REMARK  104  A    between atoms: _287  and  _290
REMARK  105  A    between atoms: _290  and  _291
REMARK  106  A    between atoms: _293  and  _295
REMARK  107  A    between atoms: _295  and  _296
REMARK  108  A    between atoms: _295  and  _298
REMARK  109  A    between atoms: _298  and  _299
REMARK  110  A    between atoms: _302  and  _304
REMARK  111  A    between atoms: _304  and  _305
REMARK  112  A    between atoms: _304  and  _307
REMARK  113  A    between atoms: _307  and  _308
REMARK  114  A    between atoms: _311  and  _313
REMARK  115  A    between atoms: _313  and  _314
REMARK  116  A    between atoms: _313  and  _316
REMARK  117  A    between atoms: _316  and  _317
REMARK  118  A    between atoms: _321  and  _322
REMARK  119  A    between atoms: _328  and  _329
REMARK  120  A    between atoms: _334  and  _336
REMARK  121  A    between atoms: _336  and  _337
REMARK  122  A    between atoms: _336  and  _339
REMARK  123  A    between atoms: _339  and  _340
REMARK  124  A    between atoms: _343  and  _345
REMARK  125  A    between atoms: _345  and  _346
REMARK  126  A    between atoms: _345  and  _348
REMARK  127  A    between atoms: _348  and  _349
REMARK  128  A    between atoms: _352  and  _354
REMARK  129  A    between atoms: _354  and  _355
REMARK  130  A    between atoms: _354  and  _357
REMARK  131  A    between atoms: _360  and  _362
REMARK  132  A    between atoms: _362  and  _363
REMARK  133  A    between atoms: _362  and  _365
REMARK  134  A    between atoms: _365  and  _366
REMARK  135  A    between atoms: _376  and  _378
REMARK  136  A    between atoms: _378  and  _379
REMARK  137  A    between atoms: _378  and  _381
REMARK  138  A    between atoms: _381  and  _382
REMARK  139  A    between atoms: _387  and  _389
REMARK  140  A    between atoms: _389  and  _390
REMARK  141  A    between atoms: _389  and  _392
REMARK  142  A    between atoms: _392  and  _393
REMARK  143  A    between atoms: _393  and  _394
REMARK  144  A    between atoms: _394  and  _395
REMARK                            x       y       z     vdW  Elec       q    Type
REMARK                         _______ _______ _______ _____ _____    ______ ____
ROOT
ATOM      1  CA  VAL A   1      -7.472   5.165  24.482  0.00  0.00    +0.133 C 
ENDROOT
BRANCH   1   2
ATOM      2  CB  VAL A   1      -7.193   3.988  23.484  0.00  0.00    +0.023 C 
ATOM      3  CG2 VAL A   1      -8.512   3.361  22.988  0.00  0.00    +0.002 C 
ATOM      4  CG1 VAL A   1      -6.332   4.460  22.315  0.00  0.00    +0.002 C 
ENDBRANCH   1   2
BRANCH   1   5
ATOM      5  N   VAL A   1      -6.238   5.903  24.715  0.00  0.00    -0.239 NA
ATOM      6  H   VAL A   1      -5.412   5.388  25.081  0.00  0.00    +0.142 HD
ENDBRANCH   1   5
BRANCH   1   7
ATOM      7  C   VAL A   1      -8.301   4.566  25.634  0.00  0.00    +0.224 C 
ATOM      8  O   VAL A   1      -7.769   3.935  26.558  0.00  0.00    -0.287 OA
ENDBRANCH   1   7
TORSDOF 3
REMARK  Name = ../refined-set-2016/1i9l/1i9l_pocket.pdb
REMARK  144 active torsions:
REMARK  status: ('A' for Active; 'I' for Inactive)
REMARK    1  A    between atoms: _1  and  _3
REMARK    2  A    between atoms: _3  and  _4
REMARK    3  A    between atoms: _3  and  _6
REMARK    4  A    between atoms: _6  and  _7
REMARK    5  A    between atoms: _17  and  _19
REMARK    6  A    between atoms: _19  and  _20
REMARK    7  A    between atoms: _19  and  _22
REMARK    8  A    between atoms: _22  and  _23
REMARK    9  A    between atoms: _28  and  _29
REMARK   10  A    between atoms: _31  and  _33
REMARK   11  A    between atoms: _33  and  _34
REMARK   12  A    between atoms: _33  and  _36
REMARK   13  A    between atoms: _36  and  _37
REMARK   14  A    between atoms: _40  and  _41
REMARK   15  A    between atoms: _46  and  _48
REMARK   16  A    between atoms: _48  and  _49
REMARK   17  A    between atoms: _48  and  _51
REMARK   18  A    between atoms: _51  and  _52
REMARK   19  A    between atoms: _57  and  _59
REMARK   20  A    between atoms: _59  and  _60
REMARK   21  A    between atoms: _63  and  _65
REMARK   22  A    between atoms: _65  and  _66
REMARK   23  A    between atoms: _65  and  _68
REMARK   24  A    between atoms: _68  and  _69
REMARK   25  A    between atoms: _74  and  _76
REMARK   26  A    between atoms: _76  and  _77
REMARK   27  A    between atoms: _76  and  _79
REMARK   28  A    between atoms: _79  and  _80
REMARK   29  A    between atoms: _83  and  _85
REMARK   30  A    between atoms: _85  and  _86
REMARK   31  A    between atoms: _85  and  _88
REMARK   32  A    between atoms: _88  and  _89
REMARK   33  A    between atoms: _89  and  _90
REMARK   34  A    between atoms: _95  and  _97
REMARK   35  A    between atoms: _97  and  _98
REMARK   36  A    between atoms: _97  and  _100
REMARK   37  A    between atoms: _100  and  _101
REMARK   38  A    between atoms: _107  and  _109
REMARK   39  A    between atoms: _120  and  _123
REMARK   40  A    between atoms: _123  and  _124
REMARK   41  A    between atoms: _132  and  _133
REMARK   42  A    between atoms: _141  and  _143
REMARK   43  A    between atoms: _143  and  _144
REMARK   44  A    between atoms: _143  and  _146
REMARK   45  A    between atoms: _146  and  _147
REMARK   46  A    between atoms: _147  and  _148
REMARK   47  A    between atoms: _151  and  _153
REMARK   48  A    between atoms: _153  and  _154
REMARK   49  A    between atoms: _153  and  _156
REMARK   50  A    between atoms: _156  and  _157
REMARK   51  A    between atoms: _162  and  _164
REMARK   52  A    between atoms: _164  and  _165
REMARK   53  A    between atoms: _164  and  _167
REMARK   54  A    between atoms: _167  and  _168
REMARK   55  A    between atoms: _168  and  _169
REMARK   56  A    between atoms: _172  and  _174
REMARK   57  A    between atoms: _174  and  _175
REMARK   58  A    between atoms: _174  and  _177
REMARK   59  A    between atoms: _177  and  _178
REMARK   60  A    between atoms: _181  and  _183
REMARK   61  A    between atoms: _183  and  _184
REMARK   62  A    between atoms: _183  and  _186
REMARK   63  A    between atoms: _186  and  _187
REMARK   64  A    between atoms: _188  and  ZN_404
REMARK   65  A    between atoms: _192  and  _194
REMARK   66  A    between atoms: _194  and  _195
REMARK   67  A    between atoms: _194  and  _197
REMARK   68  A    between atoms: _197  and  _198
REMARK   69  A    between atoms: _201  and  _203
REMARK   70  A    between atoms: _203  and  _204
REMARK   71  A    between atoms: _203  and  _206
REMARK   72  A    between atoms: _209  and  _211
REMARK   73  A    between atoms: _211  and  _212
REMARK   74  A    between atoms: _211  and  _214
REMARK   75  A    between atoms: _214  and  _215
REMARK   76  A    between atoms: _220  and  _222
REMARK   77  A    between atoms: _222  and  _223
REMARK   78  A    between atoms: _222  and  _225
REMARK   79  A    between atoms: _228  and  _230
REMARK   80  A    between atoms: _230  and  _231
REMARK   81  A    between atoms: _233  and  _235
REMARK   82  A    between atoms: _235  and  _236
REMARK   83  A    between atoms: _235  and  _238
REMARK   84  A    between atoms: _241  and  _243
REMARK   85  A    between atoms: _243  and  _244
REMARK   86  A    between atoms: _243  and  _246
REMARK   87  A    between atoms: _246  and  _247
REMARK   88  A    between atoms: _247  and  _248
REMARK   89  A    between atoms: _253  and  _255
REMARK   90  A    between atoms: _255  and  _256
REMARK   91  A    between atoms: _255  and  _258
REMARK   92  A    between atoms: _258  and  _259
REMARK   93  A    between atoms: _262  and  _264
REMARK   94  A    between atoms: _264  and  _265
REMARK   95  A    between atoms: _268  and  _270
REMARK   96  A    between atoms: _270  and  _271
REMARK   97  A    between atoms: _270  and  _273
REMARK   98  A    between atoms: _276  and  _278
REMARK   99  A    between atoms: _278  and  _279
REMARK  100  A    between atoms: _278  and  _281
REMARK  101  A    between atoms: _281  and  _282
REMARK  102  A    between atoms: _285  and  _287
REMARK  103  A    between atoms: _287  and  _288
REMARK  104  A    between atoms: _287  and  _290
REMARK  105  A    between atoms: _290  and  _291
REMARK  106  A    between atoms: _293  and  _295
REMARK  107  A    between atoms: _295  and  _296
REMARK  108  A    between atoms: _295  and  _298
REMARK  109  A    between atoms: _298  and  _299
REMARK  110  A    between atoms: _302  and  _304
REMARK  111  A    between atoms: _304  and  _305
REMARK  112  A    between atoms: _304  and  _307
REMARK  113  A    between atoms: _307  and  _308
REMARK  114  A    between atoms: _311  and  _313
REMARK  115  A    between atoms: _313  and  _314
REMARK  116  A    between atoms: _313  and  _316
REMARK  117  A    between atoms: _316  and  _317
REMARK  118  A    between atoms: _321  and  _322
REMARK  119  A    between atoms: _328  and  _329
REMARK  120  A    between atoms: _334  and  _336
REMARK  121  A    between atoms: _336  and  _337
REMARK  122  A    between atoms: _336  and  _339
REMARK  123  A    between atoms: _339  and  _340
REMARK  124  A    between atoms: _343  and  _345
REMARK  125  A    between atoms: _345  and  _346
REMARK  126  A    between atoms: _345  and  _348
REMARK  127  A    between atoms: _348  and  _349
REMARK  128  A    between atoms: _352  and  _354
REMARK  129  A    between atoms: _354  and  _355
REMARK  130  A    between atoms: _354  and  _357
REMARK  131  A    between atoms: _360  and  _362
REMARK  132  A    between atoms: _362  and  _363
REMARK  133  A    between atoms: _362  and  _365
REMARK  134  A    between atoms: _365  and  _366
REMARK  135  A    between atoms: _376  and  _378
REMARK  136  A    between atoms: _378  and  _379
REMARK  137  A    between atoms: _378  and  _381
REMARK  138  A    between atoms: _381  and  _382
REMARK  139  A    between atoms: _387  and  _389
REMARK  140  A    between atoms: _389  and  _390
REMARK  141  A    between atoms: _389  and  _392
REMARK  142  A    between atoms: _392  and  _393
REMARK  143  A    between atoms: _393  and  _394
REMARK  144  A    between atoms: _394  and  _395
REMARK                            x       y       z     vdW  Elec       q    Type
REMARK                         _______ _______ _______ _____ _____    ______ ____
ROOT
ATOM      1  CG  TRP A   1      -9.033  -0.371  24.562  0.00  0.00    -0.002 A 
ATOM      2  CD1 TRP A   1      -7.809   0.192  24.779  0.00  0.00    +0.068 A 
ATOM      3  NE1 TRP A   1      -7.039   0.121  23.632  0.00  0.00    -0.352 N 
ATOM      4  HE1 TRP A   1      -6.069   0.482  23.534  0.00  0.00    +0.166 HD
ATOM      5  CE2 TRP A   1      -7.758  -0.500  22.646  0.00  0.00    +0.056 A 
ATOM      6  CZ2 TRP A   1      -7.409  -0.806  21.320  0.00  0.00    +0.017 A 
ATOM      7  CH2 TRP A   1      -8.355  -1.448  20.541  0.00  0.00    +0.001 A 
ATOM      8  CZ3 TRP A   1      -9.626  -1.787  21.050  0.00  0.00    +0.000 A 
ATOM      9  CE3 TRP A   1      -9.975  -1.480  22.376  0.00  0.00    +0.001 A 
ATOM     10  CD2 TRP A   1      -9.029  -0.825  23.192  0.00  0.00    +0.013 A 
ENDROOT
BRANCH   1  11
ATOM     11  CB  TRP A   1     -10.168  -0.495  25.546  0.00  0.00    +0.053 C 
BRANCH  11  12
ATOM     12  CA  TRP A   1     -11.221   0.622  25.419  0.00  0.00    +0.137 C 
BRANCH  12  13
ATOM     13  N   TRP A   1     -10.766   1.817  26.103  0.00  0.00    -0.239 NA
ATOM     14  H   TRP A   1     -10.149   1.722  26.935  0.00  0.00    +0.142 HD
ENDBRANCH  12  13
BRANCH  12  15
ATOM     15  C   TRP A   1     -12.582   0.142  25.930  0.00  0.00    +0.224 C 
ATOM     16  O   TRP A   1     -12.819   0.103  27.145  0.00  0.00    -0.287 OA
ENDBRANCH  12  15
ENDBRANCH  11  12
ENDBRANCH   1  11
TORSDOF 4
REMARK  Name = ../refined-set-2016/1i9l/1i9l_pocket.pdb
REMARK  144 active torsions:
REMARK  status: ('A' for Active; 'I' for Inactive)
REMARK    1  A    between atoms: _1  and  _3
REMARK    2  A    between atoms: _3  and  _4
REMARK    3  A    between atoms: _3  and  _6
REMARK    4  A    between atoms: _6  and  _7
REMARK    5  A    between atoms: _17  and  _19
REMARK    6  A    between atoms: _19  and  _20
REMARK    7  A    between atoms: _19  and  _22
REMARK    8  A    between atoms: _22  and  _23
REMARK    9  A    between atoms: _28  and  _29
REMARK   10  A    between atoms: _31  and  _33
REMARK   11  A    between atoms: _33  and  _34
REMARK   12  A    between atoms: _33  and  _36
REMARK   13  A    between atoms: _36  and  _37
REMARK   14  A    between atoms: _40  and  _41
REMARK   15  A    between atoms: _46  and  _48
REMARK   16  A    between atoms: _48  and  _49
REMARK   17  A    between atoms: _48  and  _51
REMARK   18  A    between atoms: _51  and  _52
REMARK   19  A    between atoms: _57  and  _59
REMARK   20  A    between atoms: _59  and  _60
REMARK   21  A    between atoms: _63  and  _65
REMARK   22  A    between atoms: _65  and  _66
REMARK   23  A    between atoms: _65  and  _68
REMARK   24  A    between atoms: _68  and  _69
REMARK   25  A    between atoms: _74  and  _76
REMARK   26  A    between atoms: _76  and  _77
REMARK   27  A    between atoms: _76  and  _79
REMARK   28  A    between atoms: _79  and  _80
REMARK   29  A    between atoms: _83  and  _85
REMARK   30  A    between atoms: _85  and  _86
REMARK   31  A    between atoms: _85  and  _88
REMARK   32  A    between atoms: _88  and  _89
REMARK   33  A    between atoms: _89  and  _90
REMARK   34  A    between atoms: _95  and  _97
REMARK   35  A    between atoms: _97  and  _98
REMARK   36  A    between atoms: _97  and  _100
REMARK   37  A    between atoms: _100  and  _101
REMARK   38  A    between atoms: _107  and  _109
REMARK   39  A    between atoms: _120  and  _123
REMARK   40  A    between atoms: _123  and  _124
REMARK   41  A    between atoms: _132  and  _133
REMARK   42  A    between atoms: _141  and  _143
REMARK   43  A    between atoms: _143  and  _144
REMARK   44  A    between atoms: _143  and  _146
REMARK   45  A    between atoms: _146  and  _147
REMARK   46  A    between atoms: _147  and  _148
REMARK   47  A    between atoms: _151  and  _153
REMARK   48  A    between atoms: _153  and  _154
REMARK   49  A    between atoms: _153  and  _156
REMARK   50  A    between atoms: _156  and  _157
REMARK   51  A    between atoms: _162  and  _164
REMARK   52  A    between atoms: _164  and  _165
REMARK   53  A    between atoms: _164  and  _167
REMARK   54  A    between atoms: _167  and  _168
REMARK   55  A    between atoms: _168  and  _169
REMARK   56  A    between atoms: _172  and  _174
REMARK   57  A    between atoms: _174  and  _175
REMARK   58  A    between atoms: _174  and  _177
REMARK   59  A    between atoms: _177  and  _178
REMARK   60  A    between atoms: _181  and  _183
REMARK   61  A    between atoms: _183  and  _184
REMARK   62  A    between atoms: _183  and  _186
REMARK   63  A    between atoms: _186  and  _187
REMARK   64  A    between atoms: _188  and  ZN_404
REMARK   65  A    between atoms: _192  and  _194
REMARK   66  A    between atoms: _194  and  _195
REMARK   67  A    between atoms: _194  and  _197
REMARK   68  A    between atoms: _197  and  _198
REMARK   69  A    between atoms: _201  and  _203
REMARK   70  A    between atoms: _203  and  _204
REMARK   71  A    between atoms: _203  and  _206
REMARK   72  A    between atoms: _209  and  _211
REMARK   73  A    between atoms: _211  and  _212
REMARK   74  A    between atoms: _211  and  _214
REMARK   75  A    between atoms: _214  and  _215
REMARK   76  A    between atoms: _220  and  _222
REMARK   77  A    between atoms: _222  and  _223
REMARK   78  A    between atoms: _222  and  _225
REMARK   79  A    between atoms: _228  and  _230
REMARK   80  A    between atoms: _230  and  _231
REMARK   81  A    between atoms: _233  and  _235
REMARK   82  A    between atoms: _235  and  _236
REMARK   83  A    between atoms: _235  and  _238
REMARK   84  A    between atoms: _241  and  _243
REMARK   85  A    between atoms: _243  and  _244
REMARK   86  A    between atoms: _243  and  _246
REMARK   87  A    between atoms: _246  and  _247
REMARK   88  A    between atoms: _247  and  _248
REMARK   89  A    between atoms: _253  and  _255
REMARK   90  A    between atoms: _255  and  _256
REMARK   91  A    between atoms: _255  and  _258
REMARK   92  A    between atoms: _258  and  _259
REMARK   93  A    between atoms: _262  and  _264
REMARK   94  A    between atoms: _264  and  _265
REMARK   95  A    between atoms: _268  and  _270
REMARK   96  A    between atoms: _270  and  _271
REMARK   97  A    between atoms: _270  and  _273
REMARK   98  A    between atoms: _276  and  _278
REMARK   99  A    between atoms: _278  and  _279
REMARK  100  A    between atoms: _278  and  _281
REMARK  101  A    between atoms: _281  and  _282
REMARK  102  A    between atoms: _285  and  _287
REMARK  103  A    between atoms: _287  and  _288
REMARK  104  A    between atoms: _287  and  _290
REMARK  105  A    between atoms: _290  and  _291
REMARK  106  A    between atoms: _293  and  _295
REMARK  107  A    between atoms: _295  and  _296
REMARK  108  A    between atoms: _295  and  _298
REMARK  109  A    between atoms: _298  and  _299
REMARK  110  A    between atoms: _302  and  _304
REMARK  111  A    between atoms: _304  and  _305
REMARK  112  A    between atoms: _304  and  _307
REMARK  113  A    between atoms: _307  and  _308
REMARK  114  A    between atoms: _311  and  _313
REMARK  115  A    between atoms: _313  and  _314
REMARK  116  A    between atoms: _313  and  _316
REMARK  117  A    between atoms: _316  and  _317
REMARK  118  A    between atoms: _321  and  _322
REMARK  119  A    between atoms: _328  and  _329
REMARK  120  A    between atoms: _334  and  _336
REMARK  121  A    between atoms: _336  and  _337
REMARK  122  A    between atoms: _336  and  _339
REMARK  123  A    between atoms: _339  and  _340
REMARK  124  A    between atoms: _343  and  _345
REMARK  125  A    between atoms: _345  and  _346
REMARK  126  A    between atoms: _345  and  _348
REMARK  127  A    between atoms: _348  and  _349
REMARK  128  A    between atoms: _352  and  _354
REMARK  129  A    between atoms: _354  and  _355
REMARK  130  A    between atoms: _354  and  _357
REMARK  131  A    between atoms: _360  and  _362
REMARK  132  A    between atoms: _362  and  _363
REMARK  133  A    between atoms: _362  and  _365
REMARK  134  A    between atoms: _365  and  _366
REMARK  135  A    between atoms: _376  and  _378
REMARK  136  A    between atoms: _378  and  _379
REMARK  137  A    between atoms: _378  and  _381
REMARK  138  A    between atoms: _381  and  _382
REMARK  139  A    between atoms: _387  and  _389
REMARK  140  A    between atoms: _389  and  _390
REMARK  141  A    between atoms: _389  and  _392
REMARK  142  A    between atoms: _392  and  _393
REMARK  143  A    between atoms: _393  and  _394
REMARK  144  A    between atoms: _394  and  _395
REMARK                            x       y       z     vdW  Elec       q    Type
REMARK                         _______ _______ _______ _____ _____    ______ ____
ROOT
ATOM      1  CB  ASN A   1      -2.203  -7.770  10.756  0.00  0.00    +0.110 C 
ENDROOT
BRANCH   1   2
ATOM      2  CG  ASN A   1      -3.708  -7.942  10.547  0.00  0.00    +0.221 C 
ATOM      3  OD1 ASN A   1      -4.322  -8.860  11.089  0.00  0.00    -0.275 OA
ATOM      4  ND2 ASN A   1      -4.305  -7.050   9.762  0.00  0.00    -0.329 N 
ATOM      5 HD21 ASN A   1      -5.328  -7.113   9.587  0.00  0.00    +0.145 HD
ATOM      6 HD22 ASN A   1      -3.749  -6.289   9.323  0.00  0.00    +0.145 HD
ENDBRANCH   1   2
BRANCH   1   7
ATOM      7  CA  ASN A   1      -1.636  -8.679  11.867  0.00  0.00    +0.142 C 
BRANCH   7   8
ATOM      8  N   ASN A   1      -1.946 -10.079  11.590  0.00  0.00    -0.239 NA
ATOM      9  H   ASN A   1      -2.797 -10.300  11.035  0.00  0.00    +0.142 HD
ENDBRANCH   7   8
BRANCH   7  10
ATOM     10  C   ASN A   1      -2.217  -8.292  13.247  0.00  0.00    +0.225 C 
ATOM     11  O   ASN A   1      -3.006  -7.341  13.373  0.00  0.00    -0.287 OA
ENDBRANCH   7  10
ENDBRANCH   1   7
TORSDOF 4
REMARK  Name = ../refined-set-2016/1i9l/1i9l_pocket.pdb
REMARK  144 active torsions:
REMARK  status: ('A' for Active; 'I' for Inactive)
REMARK    1  A    between atoms: _1  and  _3
REMARK    2  A    between atoms: _3  and  _4
REMARK    3  A    between atoms: _3  and  _6
REMARK    4  A    between atoms: _6  and  _7
REMARK    5  A    between atoms: _17  and  _19
REMARK    6  A    between atoms: _19  and  _20
REMARK    7  A    between atoms: _19  and  _22
REMARK    8  A    between atoms: _22  and  _23
REMARK    9  A    between atoms: _28  and  _29
REMARK   10  A    between atoms: _31  and  _33
REMARK   11  A    between atoms: _33  and  _34
REMARK   12  A    between atoms: _33  and  _36
REMARK   13  A    between atoms: _36  and  _37
REMARK   14  A    between atoms: _40  and  _41
REMARK   15  A    between atoms: _46  and  _48
REMARK   16  A    between atoms: _48  and  _49
REMARK   17  A    between atoms: _48  and  _51
REMARK   18  A    between atoms: _51  and  _52
REMARK   19  A    between atoms: _57  and  _59
REMARK   20  A    between atoms: _59  and  _60
REMARK   21  A    between atoms: _63  and  _65
REMARK   22  A    between atoms: _65  and  _66
REMARK   23  A    between atoms: _65  and  _68
REMARK   24  A    between atoms: _68  and  _69
REMARK   25  A    between atoms: _74  and  _76
REMARK   26  A    between atoms: _76  and  _77
REMARK   27  A    between atoms: _76  and  _79
REMARK   28  A    between atoms: _79  and  _80
REMARK   29  A    between atoms: _83  and  _85
REMARK   30  A    between atoms: _85  and  _86
REMARK   31  A    between atoms: _85  and  _88
REMARK   32  A    between atoms: _88  and  _89
REMARK   33  A    between atoms: _89  and  _90
REMARK   34  A    between atoms: _95  and  _97
REMARK   35  A    between atoms: _97  and  _98
REMARK   36  A    between atoms: _97  and  _100
REMARK   37  A    between atoms: _100  and  _101
REMARK   38  A    between atoms: _107  and  _109
REMARK   39  A    between atoms: _120  and  _123
REMARK   40  A    between atoms: _123  and  _124
REMARK   41  A    between atoms: _132  and  _133
REMARK   42  A    between atoms: _141  and  _143
REMARK   43  A    between atoms: _143  and  _144
REMARK   44  A    between atoms: _143  and  _146
REMARK   45  A    between atoms: _146  and  _147
REMARK   46  A    between atoms: _147  and  _148
REMARK   47  A    between atoms: _151  and  _153
REMARK   48  A    between atoms: _153  and  _154
REMARK   49  A    between atoms: _153  and  _156
REMARK   50  A    between atoms: _156  and  _157
REMARK   51  A    between atoms: _162  and  _164
REMARK   52  A    between atoms: _164  and  _165
REMARK   53  A    between atoms: _164  and  _167
REMARK   54  A    between atoms: _167  and  _168
REMARK   55  A    between atoms: _168  and  _169
REMARK   56  A    between atoms: _172  and  _174
REMARK   57  A    between atoms: _174  and  _175
REMARK   58  A    between atoms: _174  and  _177
REMARK   59  A    between atoms: _177  and  _178
REMARK   60  A    between atoms: _181  and  _183
REMARK   61  A    between atoms: _183  and  _184
REMARK   62  A    between atoms: _183  and  _186
REMARK   63  A    between atoms: _186  and  _187
REMARK   64  A    between atoms: _188  and  ZN_404
REMARK   65  A    between atoms: _192  and  _194
REMARK   66  A    between atoms: _194  and  _195
REMARK   67  A    between atoms: _194  and  _197
REMARK   68  A    between atoms: _197  and  _198
REMARK   69  A    between atoms: _201  and  _203
REMARK   70  A    between atoms: _203  and  _204
REMARK   71  A    between atoms: _203  and  _206
REMARK   72  A    between atoms: _209  and  _211
REMARK   73  A    between atoms: _211  and  _212
REMARK   74  A    between atoms: _211  and  _214
REMARK   75  A    between atoms: _214  and  _215
REMARK   76  A    between atoms: _220  and  _222
REMARK   77  A    between atoms: _222  and  _223
REMARK   78  A    between atoms: _222  and  _225
REMARK   79  A    between atoms: _228  and  _230
REMARK   80  A    between atoms: _230  and  _231
REMARK   81  A    between atoms: _233  and  _235
REMARK   82  A    between atoms: _235  and  _236
REMARK   83  A    between atoms: _235  and  _238
REMARK   84  A    between atoms: _241  and  _243
REMARK   85  A    between atoms: _243  and  _244
REMARK   86  A    between atoms: _243  and  _246
REMARK   87  A    between atoms: _246  and  _247
REMARK   88  A    between atoms: _247  and  _248
REMARK   89  A    between atoms: _253  and  _255
REMARK   90  A    between atoms: _255  and  _256
REMARK   91  A    between atoms: _255  and  _258
REMARK   92  A    between atoms: _258  and  _259
REMARK   93  A    between atoms: _262  and  _264
REMARK   94  A    between atoms: _264  and  _265
REMARK   95  A    between atoms: _268  and  _270
REMARK   96  A    between atoms: _270  and  _271
REMARK   97  A    between atoms: _270  and  _273
REMARK   98  A    between atoms: _276  and  _278
REMARK   99  A    between atoms: _278  and  _279
REMARK  100  A    between atoms: _278  and  _281
REMARK  101  A    between atoms: _281  and  _282
REMARK  102  A    between atoms: _285  and  _287
REMARK  103  A    between atoms: _287  and  _288
REMARK  104  A    between atoms: _287  and  _290
REMARK  105  A    between atoms: _290  and  _291
REMARK  106  A    between atoms: _293  and  _295
REMARK  107  A    between atoms: _295  and  _296
REMARK  108  A    between atoms: _295  and  _298
REMARK  109  A    between atoms: _298  and  _299
REMARK  110  A    between atoms: _302  and  _304
REMARK  111  A    between atoms: _304  and  _305
REMARK  112  A    between atoms: _304  and  _307
REMARK  113  A    between atoms: _307  and  _308
REMARK  114  A    between atoms: _311  and  _313
REMARK  115  A    between atoms: _313  and  _314
REMARK  116  A    between atoms: _313  and  _316
REMARK  117  A    between atoms: _316  and  _317
REMARK  118  A    between atoms: _321  and  _322
REMARK  119  A    between atoms: _328  and  _329
REMARK  120  A    between atoms: _334  and  _336
REMARK  121  A    between atoms: _336  and  _337
REMARK  122  A    between atoms: _336  and  _339
REMARK  123  A    between atoms: _339  and  _340
REMARK  124  A    between atoms: _343  and  _345
REMARK  125  A    between atoms: _345  and  _346
REMARK  126  A    between atoms: _345  and  _348
REMARK  127  A    between atoms: _348  and  _349
REMARK  128  A    between atoms: _352  and  _354
REMARK  129  A    between atoms: _354  and  _355
REMARK  130  A    between atoms: _354  and  _357
REMARK  131  A    between atoms: _360  and  _362
REMARK  132  A    between atoms: _362  and  _363
REMARK  133  A    between atoms: _362  and  _365
REMARK  134  A    between atoms: _365  and  _366
REMARK  135  A    between atoms: _376  and  _378
REMARK  136  A    between atoms: _378  and  _379
REMARK  137  A    between atoms: _378  and  _381
REMARK  138  A    between atoms: _381  and  _382
REMARK  139  A    between atoms: _387  and  _389
REMARK  140  A    between atoms: _389  and  _390
REMARK  141  A    between atoms: _389  and  _392
REMARK  142  A    between atoms: _392  and  _393
REMARK  143  A    between atoms: _393  and  _394
REMARK  144  A    between atoms: _394  and  _395
REMARK                            x       y       z     vdW  Elec       q    Type
REMARK                         _______ _______ _______ _____ _____    ______ ____
ROOT
ATOM      1  NE  ARG A   1       1.964  -4.271  21.389  0.00  0.00    -0.265 N 
ATOM      2  CZ  ARG A   1       2.018  -3.308  22.300  0.00  0.00    +0.342 C 
ATOM      3  NH2 ARG A   1       3.190  -2.985  22.836  0.00  0.00    -0.292 N 
ATOM      4 HH21 ARG A   1       3.245  -2.232  23.551  0.00  0.00    +0.255 HD
ATOM      5 HH22 ARG A   1       4.053  -3.485  22.541  0.00  0.00    +0.255 HD
ATOM      6  NH1 ARG A   1       0.930  -2.610  22.614  0.00  0.00    -0.292 N 
ATOM      7 HH11 ARG A   1       0.984  -1.857  23.330  0.00  0.00    +0.255 HD
ATOM      8 HH12 ARG A   1       0.026  -2.817  22.144  0.00  0.00    +0.255 HD
ATOM      9  HE  ARG A   1       2.840  -4.794  21.189  0.00  0.00    +0.259 HD
ENDROOT
BRANCH   1  10
ATOM     10  CD  ARG A   1       0.771  -4.649  20.649  0.00  0.00    +0.174 C 
BRANCH  10  11
ATOM     11  CG  ARG A   1       0.859  -6.093  20.236  0.00  0.00    +0.045 C 
BRANCH  11  12
ATOM     12  CB  ARG A   1      -0.072  -6.344  19.088  0.00  0.00    +0.029 C 
BRANCH  12  13
ATOM     13  CA  ARG A   1      -0.214  -7.815  18.711  0.00  0.00    +0.133 C 
BRANCH  13  14
ATOM     14  N   ARG A   1      -1.214  -7.944  17.658  0.00  0.00    -0.239 NA
ATOM     15  H   ARG A   1      -2.051  -7.328  17.699  0.00  0.00    +0.142 HD
ENDBRANCH  13  14
BRANCH  13  16
ATOM     16  C   ARG A   1      -0.633  -8.606  19.952  0.00  0.00    +0.224 C 
ATOM     17  O   ARG A   1      -1.772  -8.494  20.401  0.00  0.00    -0.287 OA
ENDBRANCH  13  16
ENDBRANCH  12  13
ENDBRANCH  11  12
ENDBRANCH  10  11
ENDBRANCH   1  10
TORSDOF 6
REMARK  Name = ../refined-set-2016/1i9l/1i9l_pocket.pdb
REMARK  144 active torsions:
REMARK  status: ('A' for Active; 'I' for Inactive)
REMARK    1  A    between atoms: _1  and  _3
REMARK    2  A    between atoms: _3  and  _4
REMARK    3  A    between atoms: _3  and  _6
REMARK    4  A    between atoms: _6  and  _7
REMARK    5  A    between atoms: _17  and  _19
REMARK    6  A    between atoms: _19  and  _20
REMARK    7  A    between atoms: _19  and  _22
REMARK    8  A    between atoms: _22  and  _23
REMARK    9  A    between atoms: _28  and  _29
REMARK   10  A    between atoms: _31  and  _33
REMARK   11  A    between atoms: _33  and  _34
REMARK   12  A    between atoms: _33  and  _36
REMARK   13  A    between atoms: _36  and  _37
REMARK   14  A    between atoms: _40  and  _41
REMARK   15  A    between atoms: _46  and  _48
REMARK   16  A    between atoms: _48  and  _49
REMARK   17  A    between atoms: _48  and  _51
REMARK   18  A    between atoms: _51  and  _52
REMARK   19  A    between atoms: _57  and  _59
REMARK   20  A    between atoms: _59  and  _60
REMARK   21  A    between atoms: _63  and  _65
REMARK   22  A    between atoms: _65  and  _66
REMARK   23  A    between atoms: _65  and  _68
REMARK   24  A    between atoms: _68  and  _69
REMARK   25  A    between atoms: _74  and  _76
REMARK   26  A    between atoms: _76  and  _77
REMARK   27  A    between atoms: _76  and  _79
REMARK   28  A    between atoms: _79  and  _80
REMARK   29  A    between atoms: _83  and  _85
REMARK   30  A    between atoms: _85  and  _86
REMARK   31  A    between atoms: _85  and  _88
REMARK   32  A    between atoms: _88  and  _89
REMARK   33  A    between atoms: _89  and  _90
REMARK   34  A    between atoms: _95  and  _97
REMARK   35  A    between atoms: _97  and  _98
REMARK   36  A    between atoms: _97  and  _100
REMARK   37  A    between atoms: _100  and  _101
REMARK   38  A    between atoms: _107  and  _109
REMARK   39  A    between atoms: _120  and  _123
REMARK   40  A    between atoms: _123  and  _124
REMARK   41  A    between atoms: _132  and  _133
REMARK   42  A    between atoms: _141  and  _143
REMARK   43  A    between atoms: _143  and  _144
REMARK   44  A    between atoms: _143  and  _146
REMARK   45  A    between atoms: _146  and  _147
REMARK   46  A    between atoms: _147  and  _148
REMARK   47  A    between atoms: _151  and  _153
REMARK   48  A    between atoms: _153  and  _154
REMARK   49  A    between atoms: _153  and  _156
REMARK   50  A    between atoms: _156  and  _157
REMARK   51  A    between atoms: _162  and  _164
REMARK   52  A    between atoms: _164  and  _165
REMARK   53  A    between atoms: _164  and  _167
REMARK   54  A    between atoms: _167  and  _168
REMARK   55  A    between atoms: _168  and  _169
REMARK   56  A    between atoms: _172  and  _174
REMARK   57  A    between atoms: _174  and  _175
REMARK   58  A    between atoms: _174  and  _177
REMARK   59  A    between atoms: _177  and  _178
REMARK   60  A    between atoms: _181  and  _183
REMARK   61  A    between atoms: _183  and  _184
REMARK   62  A    between atoms: _183  and  _186
REMARK   63  A    between atoms: _186  and  _187
REMARK   64  A    between atoms: _188  and  ZN_404
REMARK   65  A    between atoms: _192  and  _194
REMARK   66  A    between atoms: _194  and  _195
REMARK   67  A    between atoms: _194  and  _197
REMARK   68  A    between atoms: _197  and  _198
REMARK   69  A    between atoms: _201  and  _203
REMARK   70  A    between atoms: _203  and  _204
REMARK   71  A    between atoms: _203  and  _206
REMARK   72  A    between atoms: _209  and  _211
REMARK   73  A    between atoms: _211  and  _212
REMARK   74  A    between atoms: _211  and  _214
REMARK   75  A    between atoms: _214  and  _215
REMARK   76  A    between atoms: _220  and  _222
REMARK   77  A    between atoms: _222  and  _223
REMARK   78  A    between atoms: _222  and  _225
REMARK   79  A    between atoms: _228  and  _230
REMARK   80  A    between atoms: _230  and  _231
REMARK   81  A    between atoms: _233  and  _235
REMARK   82  A    between atoms: _235  and  _236
REMARK   83  A    between atoms: _235  and  _238
REMARK   84  A    between atoms: _241  and  _243
REMARK   85  A    between atoms: _243  and  _244
REMARK   86  A    between atoms: _243  and  _246
REMARK   87  A    between atoms: _246  and  _247
REMARK   88  A    between atoms: _247  and  _248
REMARK   89  A    between atoms: _253  and  _255
REMARK   90  A    between atoms: _255  and  _256
REMARK   91  A    between atoms: _255  and  _258
REMARK   92  A    between atoms: _258  and  _259
REMARK   93  A    between atoms: _262  and  _264
REMARK   94  A    between atoms: _264  and  _265
REMARK   95  A    between atoms: _268  and  _270
REMARK   96  A    between atoms: _270  and  _271
REMARK   97  A    between atoms: _270  and  _273
REMARK   98  A    between atoms: _276  and  _278
REMARK   99  A    between atoms: _278  and  _279
REMARK  100  A    between atoms: _278  and  _281
REMARK  101  A    between atoms: _281  and  _282
REMARK  102  A    between atoms: _285  and  _287
REMARK  103  A    between atoms: _287  and  _288
REMARK  104  A    between atoms: _287  and  _290
REMARK  105  A    between atoms: _290  and  _291
REMARK  106  A    between atoms: _293  and  _295
REMARK  107  A    between atoms: _295  and  _296
REMARK  108  A    between atoms: _295  and  _298
REMARK  109  A    between atoms: _298  and  _299
REMARK  110  A    between atoms: _302  and  _304
REMARK  111  A    between atoms: _304  and  _305
REMARK  112  A    between atoms: _304  and  _307
REMARK  113  A    between atoms: _307  and  _308
REMARK  114  A    between atoms: _311  and  _313
REMARK  115  A    between atoms: _313  and  _314
REMARK  116  A    between atoms: _313  and  _316
REMARK  117  A    between atoms: _316  and  _317
REMARK  118  A    between atoms: _321  and  _322
REMARK  119  A    between atoms: _328  and  _329
REMARK  120  A    between atoms: _334  and  _336
REMARK  121  A    between atoms: _336  and  _337
REMARK  122  A    between atoms: _336  and  _339
REMARK  123  A    between atoms: _339  and  _340
REMARK  124  A    between atoms: _343  and  _345
REMARK  125  A    between atoms: _345  and  _346
REMARK  126  A    between atoms: _345  and  _348
REMARK  127  A    between atoms: _348  and  _349
REMARK  128  A    between atoms: _352  and  _354
REMARK  129  A    between atoms: _354  and  _355
REMARK  130  A    between atoms: _354  and  _357
REMARK  131  A    between atoms: _360  and  _362
REMARK  132  A    between atoms: _362  and  _363
REMARK  133  A    between atoms: _362  and  _365
REMARK  134  A    between atoms: _365  and  _366
REMARK  135  A    between atoms: _376  and  _378
REMARK  136  A    between atoms: _378  and  _379
REMARK  137  A    between atoms: _378  and  _381
REMARK  138  A    between atoms: _381  and  _382
REMARK  139  A    between atoms: _387  and  _389
REMARK  140  A    between atoms: _389  and  _390
REMARK  141  A    between atoms: _389  and  _392
REMARK  142  A    between atoms: _392  and  _393
REMARK  143  A    between atoms: _393  and  _394
REMARK  144  A    between atoms: _394  and  _395
REMARK                            x       y       z     vdW  Elec       q    Type
REMARK                         _______ _______ _______ _____ _____    ______ ____
ROOT
ATOM      1  O   HOH     1      -2.318  -0.901  10.360  0.00  0.00    +0.000 OA
ENDROOT
TORSDOF 0
REMARK  Name = ../refined-set-2016/1i9l/1i9l_pocket.pdb
REMARK  144 active torsions:
REMARK  status: ('A' for Active; 'I' for Inactive)
REMARK    1  A    between atoms: _1  and  _3
REMARK    2  A    between atoms: _3  and  _4
REMARK    3  A    between atoms: _3  and  _6
REMARK    4  A    between atoms: _6  and  _7
REMARK    5  A    between atoms: _17  and  _19
REMARK    6  A    between atoms: _19  and  _20
REMARK    7  A    between atoms: _19  and  _22
REMARK    8  A    between atoms: _22  and  _23
REMARK    9  A    between atoms: _28  and  _29
REMARK   10  A    between atoms: _31  and  _33
REMARK   11  A    between atoms: _33  and  _34
REMARK   12  A    between atoms: _33  and  _36
REMARK   13  A    between atoms: _36  and  _37
REMARK   14  A    between atoms: _40  and  _41
REMARK   15  A    between atoms: _46  and  _48
REMARK   16  A    between atoms: _48  and  _49
REMARK   17  A    between atoms: _48  and  _51
REMARK   18  A    between atoms: _51  and  _52
REMARK   19  A    between atoms: _57  and  _59
REMARK   20  A    between atoms: _59  and  _60
REMARK   21  A    between atoms: _63  and  _65
REMARK   22  A    between atoms: _65  and  _66
REMARK   23  A    between atoms: _65  and  _68
REMARK   24  A    between atoms: _68  and  _69
REMARK   25  A    between atoms: _74  and  _76
REMARK   26  A    between atoms: _76  and  _77
REMARK   27  A    between atoms: _76  and  _79
REMARK   28  A    between atoms: _79  and  _80
REMARK   29  A    between atoms: _83  and  _85
REMARK   30  A    between atoms: _85  and  _86
REMARK   31  A    between atoms: _85  and  _88
REMARK   32  A    between atoms: _88  and  _89
REMARK   33  A    between atoms: _89  and  _90
REMARK   34  A    between atoms: _95  and  _97
REMARK   35  A    between atoms: _97  and  _98
REMARK   36  A    between atoms: _97  and  _100
REMARK   37  A    between atoms: _100  and  _101
REMARK   38  A    between atoms: _107  and  _109
REMARK   39  A    between atoms: _120  and  _123
REMARK   40  A    between atoms: _123  and  _124
REMARK   41  A    between atoms: _132  and  _133
REMARK   42  A    between atoms: _141  and  _143
REMARK   43  A    between atoms: _143  and  _144
REMARK   44  A    between atoms: _143  and  _146
REMARK   45  A    between atoms: _146  and  _147
REMARK   46  A    between atoms: _147  and  _148
REMARK   47  A    between atoms: _151  and  _153
REMARK   48  A    between atoms: _153  and  _154
REMARK   49  A    between atoms: _153  and  _156
REMARK   50  A    between atoms: _156  and  _157
REMARK   51  A    between atoms: _162  and  _164
REMARK   52  A    between atoms: _164  and  _165
REMARK   53  A    between atoms: _164  and  _167
REMARK   54  A    between atoms: _167  and  _168
REMARK   55  A    between atoms: _168  and  _169
REMARK   56  A    between atoms: _172  and  _174
REMARK   57  A    between atoms: _174  and  _175
REMARK   58  A    between atoms: _174  and  _177
REMARK   59  A    between atoms: _177  and  _178
REMARK   60  A    between atoms: _181  and  _183
REMARK   61  A    between atoms: _183  and  _184
REMARK   62  A    between atoms: _183  and  _186
REMARK   63  A    between atoms: _186  and  _187
REMARK   64  A    between atoms: _188  and  ZN_404
REMARK   65  A    between atoms: _192  and  _194
REMARK   66  A    between atoms: _194  and  _195
REMARK   67  A    between atoms: _194  and  _197
REMARK   68  A    between atoms: _197  and  _198
REMARK   69  A    between atoms: _201  and  _203
REMARK   70  A    between atoms: _203  and  _204
REMARK   71  A    between atoms: _203  and  _206
REMARK   72  A    between atoms: _209  and  _211
REMARK   73  A    between atoms: _211  and  _212
REMARK   74  A    between atoms: _211  and  _214
REMARK   75  A    between atoms: _214  and  _215
REMARK   76  A    between atoms: _220  and  _222
REMARK   77  A    between atoms: _222  and  _223
REMARK   78  A    between atoms: _222  and  _225
REMARK   79  A    between atoms: _228  and  _230
REMARK   80  A    between atoms: _230  and  _231
REMARK   81  A    between atoms: _233  and  _235
REMARK   82  A    between atoms: _235  and  _236
REMARK   83  A    between atoms: _235  and  _238
REMARK   84  A    between atoms: _241  and  _243
REMARK   85  A    between atoms: _243  and  _244
REMARK   86  A    between atoms: _243  and  _246
REMARK   87  A    between atoms: _246  and  _247
REMARK   88  A    between atoms: _247  and  _248
REMARK   89  A    between atoms: _253  and  _255
REMARK   90  A    between atoms: _255  and  _256
REMARK   91  A    between atoms: _255  and  _258
REMARK   92  A    between atoms: _258  and  _259
REMARK   93  A    between atoms: _262  and  _264
REMARK   94  A    between atoms: _264  and  _265
REMARK   95  A    between atoms: _268  and  _270
REMARK   96  A    between atoms: _270  and  _271
REMARK   97  A    between atoms: _270  and  _273
REMARK   98  A    between atoms: _276  and  _278
REMARK   99  A    between atoms: _278  and  _279
REMARK  100  A    between atoms: _278  and  _281
REMARK  101  A    between atoms: _281  and  _282
REMARK  102  A    between atoms: _285  and  _287
REMARK  103  A    between atoms: _287  and  _288
REMARK  104  A    between atoms: _287  and  _290
REMARK  105  A    between atoms: _290  and  _291
REMARK  106  A    between atoms: _293  and  _295
REMARK  107  A    between atoms: _295  and  _296
REMARK  108  A    between atoms: _295  and  _298
REMARK  109  A    between atoms: _298  and  _299
REMARK  110  A    between atoms: _302  and  _304
REMARK  111  A    between atoms: _304  and  _305
REMARK  112  A    between atoms: _304  and  _307
REMARK  113  A    between atoms: _307  and  _308
REMARK  114  A    between atoms: _311  and  _313
REMARK  115  A    between atoms: _313  and  _314
REMARK  116  A    between atoms: _313  and  _316
REMARK  117  A    between atoms: _316  and  _317
REMARK  118  A    between atoms: _321  and  _322
REMARK  119  A    between atoms: _328  and  _329
REMARK  120  A    between atoms: _334  and  _336
REMARK  121  A    between atoms: _336  and  _337
REMARK  122  A    between atoms: _336  and  _339
REMARK  123  A    between atoms: _339  and  _340
REMARK  124  A    between atoms: _343  and  _345
REMARK  125  A    between atoms: _345  and  _346
REMARK  126  A    between atoms: _345  and  _348
REMARK  127  A    between atoms: _348  and  _349
REMARK  128  A    between atoms: _352  and  _354
REMARK  129  A    between atoms: _354  and  _355
REMARK  130  A    between atoms: _354  and  _357
REMARK  131  A    between atoms: _360  and  _362
REMARK  132  A    between atoms: _362  and  _363
REMARK  133  A    between atoms: _362  and  _365
REMARK  134  A    between atoms: _365  and  _366
REMARK  135  A    between atoms: _376  and  _378
REMARK  136  A    between atoms: _378  and  _379
REMARK  137  A    between atoms: _378  and  _381
REMARK  138  A    between atoms: _381  and  _382
REMARK  139  A    between atoms: _387  and  _389
REMARK  140  A    between atoms: _389  and  _390
REMARK  141  A    between atoms: _389  and  _392
REMARK  142  A    between atoms: _392  and  _393
REMARK  143  A    between atoms: _393  and  _394
REMARK  144  A    between atoms: _394  and  _395
REMARK                            x       y       z     vdW  Elec       q    Type
REMARK                         _______ _______ _______ _____ _____    ______ ____
ROOT
ATOM      1  O   HOH     1       6.404   8.386  18.278  0.00  0.00    +0.000 OA
ENDROOT
TORSDOF 0
REMARK  Name = ../refined-set-2016/1i9l/1i9l_pocket.pdb
REMARK  144 active torsions:
REMARK  status: ('A' for Active; 'I' for Inactive)
REMARK    1  A    between atoms: _1  and  _3
REMARK    2  A    between atoms: _3  and  _4
REMARK    3  A    between atoms: _3  and  _6
REMARK    4  A    between atoms: _6  and  _7
REMARK    5  A    between atoms: _17  and  _19
REMARK    6  A    between atoms: _19  and  _20
REMARK    7  A    between atoms: _19  and  _22
REMARK    8  A    between atoms: _22  and  _23
REMARK    9  A    between atoms: _28  and  _29
REMARK   10  A    between atoms: _31  and  _33
REMARK   11  A    between atoms: _33  and  _34
REMARK   12  A    between atoms: _33  and  _36
REMARK   13  A    between atoms: _36  and  _37
REMARK   14  A    between atoms: _40  and  _41
REMARK   15  A    between atoms: _46  and  _48
REMARK   16  A    between atoms: _48  and  _49
REMARK   17  A    between atoms: _48  and  _51
REMARK   18  A    between atoms: _51  and  _52
REMARK   19  A    between atoms: _57  and  _59
REMARK   20  A    between atoms: _59  and  _60
REMARK   21  A    between atoms: _63  and  _65
REMARK   22  A    between atoms: _65  and  _66
REMARK   23  A    between atoms: _65  and  _68
REMARK   24  A    between atoms: _68  and  _69
REMARK   25  A    between atoms: _74  and  _76
REMARK   26  A    between atoms: _76  and  _77
REMARK   27  A    between atoms: _76  and  _79
REMARK   28  A    between atoms: _79  and  _80
REMARK   29  A    between atoms: _83  and  _85
REMARK   30  A    between atoms: _85  and  _86
REMARK   31  A    between atoms: _85  and  _88
REMARK   32  A    between atoms: _88  and  _89
REMARK   33  A    between atoms: _89  and  _90
REMARK   34  A    between atoms: _95  and  _97
REMARK   35  A    between atoms: _97  and  _98
REMARK   36  A    between atoms: _97  and  _100
REMARK   37  A    between atoms: _100  and  _101
REMARK   38  A    between atoms: _107  and  _109
REMARK   39  A    between atoms: _120  and  _123
REMARK   40  A    between atoms: _123  and  _124
REMARK   41  A    between atoms: _132  and  _133
REMARK   42  A    between atoms: _141  and  _143
REMARK   43  A    between atoms: _143  and  _144
REMARK   44  A    between atoms: _143  and  _146
REMARK   45  A    between atoms: _146  and  _147
REMARK   46  A    between atoms: _147  and  _148
REMARK   47  A    between atoms: _151  and  _153
REMARK   48  A    between atoms: _153  and  _154
REMARK   49  A    between atoms: _153  and  _156
REMARK   50  A    between atoms: _156  and  _157
REMARK   51  A    between atoms: _162  and  _164
REMARK   52  A    between atoms: _164  and  _165
REMARK   53  A    between atoms: _164  and  _167
REMARK   54  A    between atoms: _167  and  _168
REMARK   55  A    between atoms: _168  and  _169
REMARK   56  A    between atoms: _172  and  _174
REMARK   57  A    between atoms: _174  and  _175
REMARK   58  A    between atoms: _174  and  _177
REMARK   59  A    between atoms: _177  and  _178
REMARK   60  A    between atoms: _181  and  _183
REMARK   61  A    between atoms: _183  and  _184
REMARK   62  A    between atoms: _183  and  _186
REMARK   63  A    between atoms: _186  and  _187
REMARK   64  A    between atoms: _188  and  ZN_404
REMARK   65  A    between atoms: _192  and  _194
REMARK   66  A    between atoms: _194  and  _195
REMARK   67  A    between atoms: _194  and  _197
REMARK   68  A    between atoms: _197  and  _198
REMARK   69  A    between atoms: _201  and  _203
REMARK   70  A    between atoms: _203  and  _204
REMARK   71  A    between atoms: _203  and  _206
REMARK   72  A    between atoms: _209  and  _211
REMARK   73  A    between atoms: _211  and  _212
REMARK   74  A    between atoms: _211  and  _214
REMARK   75  A    between atoms: _214  and  _215
REMARK   76  A    between atoms: _220  and  _222
REMARK   77  A    between atoms: _222  and  _223
REMARK   78  A    between atoms: _222  and  _225
REMARK   79  A    between atoms: _228  and  _230
REMARK   80  A    between atoms: _230  and  _231
REMARK   81  A    between atoms: _233  and  _235
REMARK   82  A    between atoms: _235  and  _236
REMARK   83  A    between atoms: _235  and  _238
REMARK   84  A    between atoms: _241  and  _243
REMARK   85  A    between atoms: _243  and  _244
REMARK   86  A    between atoms: _243  and  _246
REMARK   87  A    between atoms: _246  and  _247
REMARK   88  A    between atoms: _247  and  _248
REMARK   89  A    between atoms: _253  and  _255
REMARK   90  A    between atoms: _255  and  _256
REMARK   91  A    between atoms: _255  and  _258
REMARK   92  A    between atoms: _258  and  _259
REMARK   93  A    between atoms: _262  and  _264
REMARK   94  A    between atoms: _264  and  _265
REMARK   95  A    between atoms: _268  and  _270
REMARK   96  A    between atoms: _270  and  _271
REMARK   97  A    between atoms: _270  and  _273
REMARK   98  A    between atoms: _276  and  _278
REMARK   99  A    between atoms: _278  and  _279
REMARK  100  A    between atoms: _278  and  _281
REMARK  101  A    between atoms: _281  and  _282
REMARK  102  A    between atoms: _285  and  _287
REMARK  103  A    between atoms: _287  and  _288
REMARK  104  A    between atoms: _287  and  _290
REMARK  105  A    between atoms: _290  and  _291
REMARK  106  A    between atoms: _293  and  _295
REMARK  107  A    between atoms: _295  and  _296
REMARK  108  A    between atoms: _295  and  _298
REMARK  109  A    between atoms: _298  and  _299
REMARK  110  A    between atoms: _302  and  _304
REMARK  111  A    between atoms: _304  and  _305
REMARK  112  A    between atoms: _304  and  _307
REMARK  113  A    between atoms: _307  and  _308
REMARK  114  A    between atoms: _311  and  _313
REMARK  115  A    between atoms: _313  and  _314
REMARK  116  A    between atoms: _313  and  _316
REMARK  117  A    between atoms: _316  and  _317
REMARK  118  A    between atoms: _321  and  _322
REMARK  119  A    between atoms: _328  and  _329
REMARK  120  A    between atoms: _334  and  _336
REMARK  121  A    between atoms: _336  and  _337
REMARK  122  A    between atoms: _336  and  _339
REMARK  123  A    between atoms: _339  and  _340
REMARK  124  A    between atoms: _343  and  _345
REMARK  125  A    between atoms: _345  and  _346
REMARK  126  A    between atoms: _345  and  _348
REMARK  127  A    between atoms: _348  and  _349
REMARK  128  A    between atoms: _352  and  _354
REMARK  129  A    between atoms: _354  and  _355
REMARK  130  A    between atoms: _354  and  _357
REMARK  131  A    between atoms: _360  and  _362
REMARK  132  A    between atoms: _362  and  _363
REMARK  133  A    between atoms: _362  and  _365
REMARK  134  A    between atoms: _365  and  _366
REMARK  135  A    between atoms: _376  and  _378
REMARK  136  A    between atoms: _378  and  _379
REMARK  137  A    between atoms: _378  and  _381
REMARK  138  A    between atoms: _381  and  _382
REMARK  139  A    between atoms: _387  and  _389
REMARK  140  A    between atoms: _389  and  _390
REMARK  141  A    between atoms: _389  and  _392
REMARK  142  A    between atoms: _392  and  _393
REMARK  143  A    between atoms: _393  and  _394
REMARK  144  A    between atoms: _394  and  _395
REMARK                            x       y       z     vdW  Elec       q    Type
REMARK                         _______ _______ _______ _____ _____    ______ ____
ROOT
ATOM      1  O   HOH     1      -1.333  -4.703  16.347  0.00  0.00    +0.000 OA
ENDROOT
TORSDOF 0
REMARK  Name = ../refined-set-2016/1i9l/1i9l_pocket.pdb
REMARK  144 active torsions:
REMARK  status: ('A' for Active; 'I' for Inactive)
REMARK    1  A    between atoms: _1  and  _3
REMARK    2  A    between atoms: _3  and  _4
REMARK    3  A    between atoms: _3  and  _6
REMARK    4  A    between atoms: _6  and  _7
REMARK    5  A    between atoms: _17  and  _19
REMARK    6  A    between atoms: _19  and  _20
REMARK    7  A    between atoms: _19  and  _22
REMARK    8  A    between atoms: _22  and  _23
REMARK    9  A    between atoms: _28  and  _29
REMARK   10  A    between atoms: _31  and  _33
REMARK   11  A    between atoms: _33  and  _34
REMARK   12  A    between atoms: _33  and  _36
REMARK   13  A    between atoms: _36  and  _37
REMARK   14  A    between atoms: _40  and  _41
REMARK   15  A    between atoms: _46  and  _48
REMARK   16  A    between atoms: _48  and  _49
REMARK   17  A    between atoms: _48  and  _51
REMARK   18  A    between atoms: _51  and  _52
REMARK   19  A    between atoms: _57  and  _59
REMARK   20  A    between atoms: _59  and  _60
REMARK   21  A    between atoms: _63  and  _65
REMARK   22  A    between atoms: _65  and  _66
REMARK   23  A    between atoms: _65  and  _68
REMARK   24  A    between atoms: _68  and  _69
REMARK   25  A    between atoms: _74  and  _76
REMARK   26  A    between atoms: _76  and  _77
REMARK   27  A    between atoms: _76  and  _79
REMARK   28  A    between atoms: _79  and  _80
REMARK   29  A    between atoms: _83  and  _85
REMARK   30  A    between atoms: _85  and  _86
REMARK   31  A    between atoms: _85  and  _88
REMARK   32  A    between atoms: _88  and  _89
REMARK   33  A    between atoms: _89  and  _90
REMARK   34  A    between atoms: _95  and  _97
REMARK   35  A    between atoms: _97  and  _98
REMARK   36  A    between atoms: _97  and  _100
REMARK   37  A    between atoms: _100  and  _101
REMARK   38  A    between atoms: _107  and  _109
REMARK   39  A    between atoms: _120  and  _123
REMARK   40  A    between atoms: _123  and  _124
REMARK   41  A    between atoms: _132  and  _133
REMARK   42  A    between atoms: _141  and  _143
REMARK   43  A    between atoms: _143  and  _144
REMARK   44  A    between atoms: _143  and  _146
REMARK   45  A    between atoms: _146  and  _147
REMARK   46  A    between atoms: _147  and  _148
REMARK   47  A    between atoms: _151  and  _153
REMARK   48  A    between atoms: _153  and  _154
REMARK   49  A    between atoms: _153  and  _156
REMARK   50  A    between atoms: _156  and  _157
REMARK   51  A    between atoms: _162  and  _164
REMARK   52  A    between atoms: _164  and  _165
REMARK   53  A    between atoms: _164  and  _167
REMARK   54  A    between atoms: _167  and  _168
REMARK   55  A    between atoms: _168  and  _169
REMARK   56  A    between atoms: _172  and  _174
REMARK   57  A    between atoms: _174  and  _175
REMARK   58  A    between atoms: _174  and  _177
REMARK   59  A    between atoms: _177  and  _178
REMARK   60  A    between atoms: _181  and  _183
REMARK   61  A    between atoms: _183  and  _184
REMARK   62  A    between atoms: _183  and  _186
REMARK   63  A    between atoms: _186  and  _187
REMARK   64  A    between atoms: _188  and  ZN_404
REMARK   65  A    between atoms: _192  and  _194
REMARK   66  A    between atoms: _194  and  _195
REMARK   67  A    between atoms: _194  and  _197
REMARK   68  A    between atoms: _197  and  _198
REMARK   69  A    between atoms: _201  and  _203
REMARK   70  A    between atoms: _203  and  _204
REMARK   71  A    between atoms: _203  and  _206
REMARK   72  A    between atoms: _209  and  _211
REMARK   73  A    between atoms: _211  and  _212
REMARK   74  A    between atoms: _211  and  _214
REMARK   75  A    between atoms: _214  and  _215
REMARK   76  A    between atoms: _220  and  _222
REMARK   77  A    between atoms: _222  and  _223
REMARK   78  A    between atoms: _222  and  _225
REMARK   79  A    between atoms: _228  and  _230
REMARK   80  A    between atoms: _230  and  _231
REMARK   81  A    between atoms: _233  and  _235
REMARK   82  A    between atoms: _235  and  _236
REMARK   83  A    between atoms: _235  and  _238
REMARK   84  A    between atoms: _241  and  _243
REMARK   85  A    between atoms: _243  and  _244
REMARK   86  A    between atoms: _243  and  _246
REMARK   87  A    between atoms: _246  and  _247
REMARK   88  A    between atoms: _247  and  _248
REMARK   89  A    between atoms: _253  and  _255
REMARK   90  A    between atoms: _255  and  _256
REMARK   91  A    between atoms: _255  and  _258
REMARK   92  A    between atoms: _258  and  _259
REMARK   93  A    between atoms: _262  and  _264
REMARK   94  A    between atoms: _264  and  _265
REMARK   95  A    between atoms: _268  and  _270
REMARK   96  A    between atoms: _270  and  _271
REMARK   97  A    between atoms: _270  and  _273
REMARK   98  A    between atoms: _276  and  _278
REMARK   99  A    between atoms: _278  and  _279
REMARK  100  A    between atoms: _278  and  _281
REMARK  101  A    between atoms: _281  and  _282
REMARK  102  A    between atoms: _285  and  _287
REMARK  103  A    between atoms: _287  and  _288
REMARK  104  A    between atoms: _287  and  _290
REMARK  105  A    between atoms: _290  and  _291
REMARK  106  A    between atoms: _293  and  _295
REMARK  107  A    between atoms: _295  and  _296
REMARK  108  A    between atoms: _295  and  _298
REMARK  109  A    between atoms: _298  and  _299
REMARK  110  A    between atoms: _302  and  _304
REMARK  111  A    between atoms: _304  and  _305
REMARK  112  A    between atoms: _304  and  _307
REMARK  113  A    between atoms: _307  and  _308
REMARK  114  A    between atoms: _311  and  _313
REMARK  115  A    between atoms: _313  and  _314
REMARK  116  A    between atoms: _313  and  _316
REMARK  117  A    between atoms: _316  and  _317
REMARK  118  A    between atoms: _321  and  _322
REMARK  119  A    between atoms: _328  and  _329
REMARK  120  A    between atoms: _334  and  _336
REMARK  121  A    between atoms: _336  and  _337
REMARK  122  A    between atoms: _336  and  _339
REMARK  123  A    between atoms: _339  and  _340
REMARK  124  A    between atoms: _343  and  _345
REMARK  125  A    between atoms: _345  and  _346
REMARK  126  A    between atoms: _345  and  _348
REMARK  127  A    between atoms: _348  and  _349
REMARK  128  A    between atoms: _352  and  _354
REMARK  129  A    between atoms: _354  and  _355
REMARK  130  A    between atoms: _354  and  _357
REMARK  131  A    between atoms: _360  and  _362
REMARK  132  A    between atoms: _362  and  _363
REMARK  133  A    between atoms: _362  and  _365
REMARK  134  A    between atoms: _365  and  _366
REMARK  135  A    between atoms: _376  and  _378
REMARK  136  A    between atoms: _378  and  _379
REMARK  137  A    between atoms: _378  and  _381
REMARK  138  A    between atoms: _381  and  _382
REMARK  139  A    between atoms: _387  and  _389
REMARK  140  A    between atoms: _389  and  _390
REMARK  141  A    between atoms: _389  and  _392
REMARK  142  A    between atoms: _392  and  _393
REMARK  143  A    between atoms: _393  and  _394
REMARK  144  A    between atoms: _394  and  _395
REMARK                            x       y       z     vdW  Elec       q    Type
REMARK                         _______ _______ _______ _____ _____    ______ ____
ROOT
ATOM      1  O   HOH     1      -2.733  -3.763  11.725  0.00  0.00    +0.000 OA
ENDROOT
TORSDOF 0
REMARK  Name = ../refined-set-2016/1i9l/1i9l_pocket.pdb
REMARK  144 active torsions:
REMARK  status: ('A' for Active; 'I' for Inactive)
REMARK    1  A    between atoms: _1  and  _3
REMARK    2  A    between atoms: _3  and  _4
REMARK    3  A    between atoms: _3  and  _6
REMARK    4  A    between atoms: _6  and  _7
REMARK    5  A    between atoms: _17  and  _19
REMARK    6  A    between atoms: _19  and  _20
REMARK    7  A    between atoms: _19  and  _22
REMARK    8  A    between atoms: _22  and  _23
REMARK    9  A    between atoms: _28  and  _29
REMARK   10  A    between atoms: _31  and  _33
REMARK   11  A    between atoms: _33  and  _34
REMARK   12  A    between atoms: _33  and  _36
REMARK   13  A    between atoms: _36  and  _37
REMARK   14  A    between atoms: _40  and  _41
REMARK   15  A    between atoms: _46  and  _48
REMARK   16  A    between atoms: _48  and  _49
REMARK   17  A    between atoms: _48  and  _51
REMARK   18  A    between atoms: _51  and  _52
REMARK   19  A    between atoms: _57  and  _59
REMARK   20  A    between atoms: _59  and  _60
REMARK   21  A    between atoms: _63  and  _65
REMARK   22  A    between atoms: _65  and  _66
REMARK   23  A    between atoms: _65  and  _68
REMARK   24  A    between atoms: _68  and  _69
REMARK   25  A    between atoms: _74  and  _76
REMARK   26  A    between atoms: _76  and  _77
REMARK   27  A    between atoms: _76  and  _79
REMARK   28  A    between atoms: _79  and  _80
REMARK   29  A    between atoms: _83  and  _85
REMARK   30  A    between atoms: _85  and  _86
REMARK   31  A    between atoms: _85  and  _88
REMARK   32  A    between atoms: _88  and  _89
REMARK   33  A    between atoms: _89  and  _90
REMARK   34  A    between atoms: _95  and  _97
REMARK   35  A    between atoms: _97  and  _98
REMARK   36  A    between atoms: _97  and  _100
REMARK   37  A    between atoms: _100  and  _101
REMARK   38  A    between atoms: _107  and  _109
REMARK   39  A    between atoms: _120  and  _123
REMARK   40  A    between atoms: _123  and  _124
REMARK   41  A    between atoms: _132  and  _133
REMARK   42  A    between atoms: _141  and  _143
REMARK   43  A    between atoms: _143  and  _144
REMARK   44  A    between atoms: _143  and  _146
REMARK   45  A    between atoms: _146  and  _147
REMARK   46  A    between atoms: _147  and  _148
REMARK   47  A    between atoms: _151  and  _153
REMARK   48  A    between atoms: _153  and  _154
REMARK   49  A    between atoms: _153  and  _156
REMARK   50  A    between atoms: _156  and  _157
REMARK   51  A    between atoms: _162  and  _164
REMARK   52  A    between atoms: _164  and  _165
REMARK   53  A    between atoms: _164  and  _167
REMARK   54  A    between atoms: _167  and  _168
REMARK   55  A    between atoms: _168  and  _169
REMARK   56  A    between atoms: _172  and  _174
REMARK   57  A    between atoms: _174  and  _175
REMARK   58  A    between atoms: _174  and  _177
REMARK   59  A    between atoms: _177  and  _178
REMARK   60  A    between atoms: _181  and  _183
REMARK   61  A    between atoms: _183  and  _184
REMARK   62  A    between atoms: _183  and  _186
REMARK   63  A    between atoms: _186  and  _187
REMARK   64  A    between atoms: _188  and  ZN_404
REMARK   65  A    between atoms: _192  and  _194
REMARK   66  A    between atoms: _194  and  _195
REMARK   67  A    between atoms: _194  and  _197
REMARK   68  A    between atoms: _197  and  _198
REMARK   69  A    between atoms: _201  and  _203
REMARK   70  A    between atoms: _203  and  _204
REMARK   71  A    between atoms: _203  and  _206
REMARK   72  A    between atoms: _209  and  _211
REMARK   73  A    between atoms: _211  and  _212
REMARK   74  A    between atoms: _211  and  _214
REMARK   75  A    between atoms: _214  and  _215
REMARK   76  A    between atoms: _220  and  _222
REMARK   77  A    between atoms: _222  and  _223
REMARK   78  A    between atoms: _222  and  _225
REMARK   79  A    between atoms: _228  and  _230
REMARK   80  A    between atoms: _230  and  _231
REMARK   81  A    between atoms: _233  and  _235
REMARK   82  A    between atoms: _235  and  _236
REMARK   83  A    between atoms: _235  and  _238
REMARK   84  A    between atoms: _241  and  _243
REMARK   85  A    between atoms: _243  and  _244
REMARK   86  A    between atoms: _243  and  _246
REMARK   87  A    between atoms: _246  and  _247
REMARK   88  A    between atoms: _247  and  _248
REMARK   89  A    between atoms: _253  and  _255
REMARK   90  A    between atoms: _255  and  _256
REMARK   91  A    between atoms: _255  and  _258
REMARK   92  A    between atoms: _258  and  _259
REMARK   93  A    between atoms: _262  and  _264
REMARK   94  A    between atoms: _264  and  _265
REMARK   95  A    between atoms: _268  and  _270
REMARK   96  A    between atoms: _270  and  _271
REMARK   97  A    between atoms: _270  and  _273
REMARK   98  A    between atoms: _276  and  _278
REMARK   99  A    between atoms: _278  and  _279
REMARK  100  A    between atoms: _278  and  _281
REMARK  101  A    between atoms: _281  and  _282
REMARK  102  A    between atoms: _285  and  _287
REMARK  103  A    between atoms: _287  and  _288
REMARK  104  A    between atoms: _287  and  _290
REMARK  105  A    between atoms: _290  and  _291
REMARK  106  A    between atoms: _293  and  _295
REMARK  107  A    between atoms: _295  and  _296
REMARK  108  A    between atoms: _295  and  _298
REMARK  109  A    between atoms: _298  and  _299
REMARK  110  A    between atoms: _302  and  _304
REMARK  111  A    between atoms: _304  and  _305
REMARK  112  A    between atoms: _304  and  _307
REMARK  113  A    between atoms: _307  and  _308
REMARK  114  A    between atoms: _311  and  _313
REMARK  115  A    between atoms: _313  and  _314
REMARK  116  A    between atoms: _313  and  _316
REMARK  117  A    between atoms: _316  and  _317
REMARK  118  A    between atoms: _321  and  _322
REMARK  119  A    between atoms: _328  and  _329
REMARK  120  A    between atoms: _334  and  _336
REMARK  121  A    between atoms: _336  and  _337
REMARK  122  A    between atoms: _336  and  _339
REMARK  123  A    between atoms: _339  and  _340
REMARK  124  A    between atoms: _343  and  _345
REMARK  125  A    between atoms: _345  and  _346
REMARK  126  A    between atoms: _345  and  _348
REMARK  127  A    between atoms: _348  and  _349
REMARK  128  A    between atoms: _352  and  _354
REMARK  129  A    between atoms: _354  and  _355
REMARK  130  A    between atoms: _354  and  _357
REMARK  131  A    between atoms: _360  and  _362
REMARK  132  A    between atoms: _362  and  _363
REMARK  133  A    between atoms: _362  and  _365
REMARK  134  A    between atoms: _365  and  _366
REMARK  135  A    between atoms: _376  and  _378
REMARK  136  A    between atoms: _378  and  _379
REMARK  137  A    between atoms: _378  and  _381
REMARK  138  A    between atoms: _381  and  _382
REMARK  139  A    between atoms: _387  and  _389
REMARK  140  A    between atoms: _389  and  _390
REMARK  141  A    between atoms: _389  and  _392
REMARK  142  A    between atoms: _392  and  _393
REMARK  143  A    between atoms: _393  and  _394
REMARK  144  A    between atoms: _394  and  _395
REMARK                            x       y       z     vdW  Elec       q    Type
REMARK                         _______ _______ _______ _____ _____    ______ ____
ROOT
ATOM      1  O   HOH     1      -7.047   5.498   7.120  0.00  0.00    +0.000 OA
ENDROOT
TORSDOF 0
REMARK  Name = ../refined-set-2016/1i9l/1i9l_pocket.pdb
REMARK  144 active torsions:
REMARK  status: ('A' for Active; 'I' for Inactive)
REMARK    1  A    between atoms: _1  and  _3
REMARK    2  A    between atoms: _3  and  _4
REMARK    3  A    between atoms: _3  and  _6
REMARK    4  A    between atoms: _6  and  _7
REMARK    5  A    between atoms: _17  and  _19
REMARK    6  A    between atoms: _19  and  _20
REMARK    7  A    between atoms: _19  and  _22
REMARK    8  A    between atoms: _22  and  _23
REMARK    9  A    between atoms: _28  and  _29
REMARK   10  A    between atoms: _31  and  _33
REMARK   11  A    between atoms: _33  and  _34
REMARK   12  A    between atoms: _33  and  _36
REMARK   13  A    between atoms: _36  and  _37
REMARK   14  A    between atoms: _40  and  _41
REMARK   15  A    between atoms: _46  and  _48
REMARK   16  A    between atoms: _48  and  _49
REMARK   17  A    between atoms: _48  and  _51
REMARK   18  A    between atoms: _51  and  _52
REMARK   19  A    between atoms: _57  and  _59
REMARK   20  A    between atoms: _59  and  _60
REMARK   21  A    between atoms: _63  and  _65
REMARK   22  A    between atoms: _65  and  _66
REMARK   23  A    between atoms: _65  and  _68
REMARK   24  A    between atoms: _68  and  _69
REMARK   25  A    between atoms: _74  and  _76
REMARK   26  A    between atoms: _76  and  _77
REMARK   27  A    between atoms: _76  and  _79
REMARK   28  A    between atoms: _79  and  _80
REMARK   29  A    between atoms: _83  and  _85
REMARK   30  A    between atoms: _85  and  _86
REMARK   31  A    between atoms: _85  and  _88
REMARK   32  A    between atoms: _88  and  _89
REMARK   33  A    between atoms: _89  and  _90
REMARK   34  A    between atoms: _95  and  _97
REMARK   35  A    between atoms: _97  and  _98
REMARK   36  A    between atoms: _97  and  _100
REMARK   37  A    between atoms: _100  and  _101
REMARK   38  A    between atoms: _107  and  _109
REMARK   39  A    between atoms: _120  and  _123
REMARK   40  A    between atoms: _123  and  _124
REMARK   41  A    between atoms: _132  and  _133
REMARK   42  A    between atoms: _141  and  _143
REMARK   43  A    between atoms: _143  and  _144
REMARK   44  A    between atoms: _143  and  _146
REMARK   45  A    between atoms: _146  and  _147
REMARK   46  A    between atoms: _147  and  _148
REMARK   47  A    between atoms: _151  and  _153
REMARK   48  A    between atoms: _153  and  _154
REMARK   49  A    between atoms: _153  and  _156
REMARK   50  A    between atoms: _156  and  _157
REMARK   51  A    between atoms: _162  and  _164
REMARK   52  A    between atoms: _164  and  _165
REMARK   53  A    between atoms: _164  and  _167
REMARK   54  A    between atoms: _167  and  _168
REMARK   55  A    between atoms: _168  and  _169
REMARK   56  A    between atoms: _172  and  _174
REMARK   57  A    between atoms: _174  and  _175
REMARK   58  A    between atoms: _174  and  _177
REMARK   59  A    between atoms: _177  and  _178
REMARK   60  A    between atoms: _181  and  _183
REMARK   61  A    between atoms: _183  and  _184
REMARK   62  A    between atoms: _183  and  _186
REMARK   63  A    between atoms: _186  and  _187
REMARK   64  A    between atoms: _188  and  ZN_404
REMARK   65  A    between atoms: _192  and  _194
REMARK   66  A    between atoms: _194  and  _195
REMARK   67  A    between atoms: _194  and  _197
REMARK   68  A    between atoms: _197  and  _198
REMARK   69  A    between atoms: _201  and  _203
REMARK   70  A    between atoms: _203  and  _204
REMARK   71  A    between atoms: _203  and  _206
REMARK   72  A    between atoms: _209  and  _211
REMARK   73  A    between atoms: _211  and  _212
REMARK   74  A    between atoms: _211  and  _214
REMARK   75  A    between atoms: _214  and  _215
REMARK   76  A    between atoms: _220  and  _222
REMARK   77  A    between atoms: _222  and  _223
REMARK   78  A    between atoms: _222  and  _225
REMARK   79  A    between atoms: _228  and  _230
REMARK   80  A    between atoms: _230  and  _231
REMARK   81  A    between atoms: _233  and  _235
REMARK   82  A    between atoms: _235  and  _236
REMARK   83  A    between atoms: _235  and  _238
REMARK   84  A    between atoms: _241  and  _243
REMARK   85  A    between atoms: _243  and  _244
REMARK   86  A    between atoms: _243  and  _246
REMARK   87  A    between atoms: _246  and  _247
REMARK   88  A    between atoms: _247  and  _248
REMARK   89  A    between atoms: _253  and  _255
REMARK   90  A    between atoms: _255  and  _256
REMARK   91  A    between atoms: _255  and  _258
REMARK   92  A    between atoms: _258  and  _259
REMARK   93  A    between atoms: _262  and  _264
REMARK   94  A    between atoms: _264  and  _265
REMARK   95  A    between atoms: _268  and  _270
REMARK   96  A    between atoms: _270  and  _271
REMARK   97  A    between atoms: _270  and  _273
REMARK   98  A    between atoms: _276  and  _278
REMARK   99  A    between atoms: _278  and  _279
REMARK  100  A    between atoms: _278  and  _281
REMARK  101  A    between atoms: _281  and  _282
REMARK  102  A    between atoms: _285  and  _287
REMARK  103  A    between atoms: _287  and  _288
REMARK  104  A    between atoms: _287  and  _290
REMARK  105  A    between atoms: _290  and  _291
REMARK  106  A    between atoms: _293  and  _295
REMARK  107  A    between atoms: _295  and  _296
REMARK  108  A    between atoms: _295  and  _298
REMARK  109  A    between atoms: _298  and  _299
REMARK  110  A    between atoms: _302  and  _304
REMARK  111  A    between atoms: _304  and  _305
REMARK  112  A    between atoms: _304  and  _307
REMARK  113  A    between atoms: _307  and  _308
REMARK  114  A    between atoms: _311  and  _313
REMARK  115  A    between atoms: _313  and  _314
REMARK  116  A    between atoms: _313  and  _316
REMARK  117  A    between atoms: _316  and  _317
REMARK  118  A    between atoms: _321  and  _322
REMARK  119  A    between atoms: _328  and  _329
REMARK  120  A    between atoms: _334  and  _336
REMARK  121  A    between atoms: _336  and  _337
REMARK  122  A    between atoms: _336  and  _339
REMARK  123  A    between atoms: _339  and  _340
REMARK  124  A    between atoms: _343  and  _345
REMARK  125  A    between atoms: _345  and  _346
REMARK  126  A    between atoms: _345  and  _348
REMARK  127  A    between atoms: _348  and  _349
REMARK  128  A    between atoms: _352  and  _354
REMARK  129  A    between atoms: _354  and  _355
REMARK  130  A    between atoms: _354  and  _357
REMARK  131  A    between atoms: _360  and  _362
REMARK  132  A    between atoms: _362  and  _363
REMARK  133  A    between atoms: _362  and  _365
REMARK  134  A    between atoms: _365  and  _366
REMARK  135  A    between atoms: _376  and  _378
REMARK  136  A    between atoms: _378  and  _379
REMARK  137  A    between atoms: _378  and  _381
REMARK  138  A    between atoms: _381  and  _382
REMARK  139  A    between atoms: _387  and  _389
REMARK  140  A    between atoms: _389  and  _390
REMARK  141  A    between atoms: _389  and  _392
REMARK  142  A    between atoms: _392  and  _393
REMARK  143  A    between atoms: _393  and  _394
REMARK  144  A    between atoms: _394  and  _395
REMARK                            x       y       z     vdW  Elec       q    Type
REMARK                         _______ _______ _______ _____ _____    ______ ____
ROOT
ATOM      1  O   HOH     1       5.174   6.838  20.178  0.00  0.00    +0.000 OA
ENDROOT
TORSDOF 0
REMARK  Name = ../refined-set-2016/1i9l/1i9l_pocket.pdb
REMARK  144 active torsions:
REMARK  status: ('A' for Active; 'I' for Inactive)
REMARK    1  A    between atoms: _1  and  _3
REMARK    2  A    between atoms: _3  and  _4
REMARK    3  A    between atoms: _3  and  _6
REMARK    4  A    between atoms: _6  and  _7
REMARK    5  A    between atoms: _17  and  _19
REMARK    6  A    between atoms: _19  and  _20
REMARK    7  A    between atoms: _19  and  _22
REMARK    8  A    between atoms: _22  and  _23
REMARK    9  A    between atoms: _28  and  _29
REMARK   10  A    between atoms: _31  and  _33
REMARK   11  A    between atoms: _33  and  _34
REMARK   12  A    between atoms: _33  and  _36
REMARK   13  A    between atoms: _36  and  _37
REMARK   14  A    between atoms: _40  and  _41
REMARK   15  A    between atoms: _46  and  _48
REMARK   16  A    between atoms: _48  and  _49
REMARK   17  A    between atoms: _48  and  _51
REMARK   18  A    between atoms: _51  and  _52
REMARK   19  A    between atoms: _57  and  _59
REMARK   20  A    between atoms: _59  and  _60
REMARK   21  A    between atoms: _63  and  _65
REMARK   22  A    between atoms: _65  and  _66
REMARK   23  A    between atoms: _65  and  _68
REMARK   24  A    between atoms: _68  and  _69
REMARK   25  A    between atoms: _74  and  _76
REMARK   26  A    between atoms: _76  and  _77
REMARK   27  A    between atoms: _76  and  _79
REMARK   28  A    between atoms: _79  and  _80
REMARK   29  A    between atoms: _83  and  _85
REMARK   30  A    between atoms: _85  and  _86
REMARK   31  A    between atoms: _85  and  _88
REMARK   32  A    between atoms: _88  and  _89
REMARK   33  A    between atoms: _89  and  _90
REMARK   34  A    between atoms: _95  and  _97
REMARK   35  A    between atoms: _97  and  _98
REMARK   36  A    between atoms: _97  and  _100
REMARK   37  A    between atoms: _100  and  _101
REMARK   38  A    between atoms: _107  and  _109
REMARK   39  A    between atoms: _120  and  _123
REMARK   40  A    between atoms: _123  and  _124
REMARK   41  A    between atoms: _132  and  _133
REMARK   42  A    between atoms: _141  and  _143
REMARK   43  A    between atoms: _143  and  _144
REMARK   44  A    between atoms: _143  and  _146
REMARK   45  A    between atoms: _146  and  _147
REMARK   46  A    between atoms: _147  and  _148
REMARK   47  A    between atoms: _151  and  _153
REMARK   48  A    between atoms: _153  and  _154
REMARK   49  A    between atoms: _153  and  _156
REMARK   50  A    between atoms: _156  and  _157
REMARK   51  A    between atoms: _162  and  _164
REMARK   52  A    between atoms: _164  and  _165
REMARK   53  A    between atoms: _164  and  _167
REMARK   54  A    between atoms: _167  and  _168
REMARK   55  A    between atoms: _168  and  _169
REMARK   56  A    between atoms: _172  and  _174
REMARK   57  A    between atoms: _174  and  _175
REMARK   58  A    between atoms: _174  and  _177
REMARK   59  A    between atoms: _177  and  _178
REMARK   60  A    between atoms: _181  and  _183
REMARK   61  A    between atoms: _183  and  _184
REMARK   62  A    between atoms: _183  and  _186
REMARK   63  A    between atoms: _186  and  _187
REMARK   64  A    between atoms: _188  and  ZN_404
REMARK   65  A    between atoms: _192  and  _194
REMARK   66  A    between atoms: _194  and  _195
REMARK   67  A    between atoms: _194  and  _197
REMARK   68  A    between atoms: _197  and  _198
REMARK   69  A    between atoms: _201  and  _203
REMARK   70  A    between atoms: _203  and  _204
REMARK   71  A    between atoms: _203  and  _206
REMARK   72  A    between atoms: _209  and  _211
REMARK   73  A    between atoms: _211  and  _212
REMARK   74  A    between atoms: _211  and  _214
REMARK   75  A    between atoms: _214  and  _215
REMARK   76  A    between atoms: _220  and  _222
REMARK   77  A    between atoms: _222  and  _223
REMARK   78  A    between atoms: _222  and  _225
REMARK   79  A    between atoms: _228  and  _230
REMARK   80  A    between atoms: _230  and  _231
REMARK   81  A    between atoms: _233  and  _235
REMARK   82  A    between atoms: _235  and  _236
REMARK   83  A    between atoms: _235  and  _238
REMARK   84  A    between atoms: _241  and  _243
REMARK   85  A    between atoms: _243  and  _244
REMARK   86  A    between atoms: _243  and  _246
REMARK   87  A    between atoms: _246  and  _247
REMARK   88  A    between atoms: _247  and  _248
REMARK   89  A    between atoms: _253  and  _255
REMARK   90  A    between atoms: _255  and  _256
REMARK   91  A    between atoms: _255  and  _258
REMARK   92  A    between atoms: _258  and  _259
REMARK   93  A    between atoms: _262  and  _264
REMARK   94  A    between atoms: _264  and  _265
REMARK   95  A    between atoms: _268  and  _270
REMARK   96  A    between atoms: _270  and  _271
REMARK   97  A    between atoms: _270  and  _273
REMARK   98  A    between atoms: _276  and  _278
REMARK   99  A    between atoms: _278  and  _279
REMARK  100  A    between atoms: _278  and  _281
REMARK  101  A    between atoms: _281  and  _282
REMARK  102  A    between atoms: _285  and  _287
REMARK  103  A    between atoms: _287  and  _288
REMARK  104  A    between atoms: _287  and  _290
REMARK  105  A    between atoms: _290  and  _291
REMARK  106  A    between atoms: _293  and  _295
REMARK  107  A    between atoms: _295  and  _296
REMARK  108  A    between atoms: _295  and  _298
REMARK  109  A    between atoms: _298  and  _299
REMARK  110  A    between atoms: _302  and  _304
REMARK  111  A    between atoms: _304  and  _305
REMARK  112  A    between atoms: _304  and  _307
REMARK  113  A    between atoms: _307  and  _308
REMARK  114  A    between atoms: _311  and  _313
REMARK  115  A    between atoms: _313  and  _314
REMARK  116  A    between atoms: _313  and  _316
REMARK  117  A    between atoms: _316  and  _317
REMARK  118  A    between atoms: _321  and  _322
REMARK  119  A    between atoms: _328  and  _329
REMARK  120  A    between atoms: _334  and  _336
REMARK  121  A    between atoms: _336  and  _337
REMARK  122  A    between atoms: _336  and  _339
REMARK  123  A    between atoms: _339  and  _340
REMARK  124  A    between atoms: _343  and  _345
REMARK  125  A    between atoms: _345  and  _346
REMARK  126  A    between atoms: _345  and  _348
REMARK  127  A    between atoms: _348  and  _349
REMARK  128  A    between atoms: _352  and  _354
REMARK  129  A    between atoms: _354  and  _355
REMARK  130  A    between atoms: _354  and  _357
REMARK  131  A    between atoms: _360  and  _362
REMARK  132  A    between atoms: _362  and  _363
REMARK  133  A    between atoms: _362  and  _365
REMARK  134  A    between atoms: _365  and  _366
REMARK  135  A    between atoms: _376  and  _378
REMARK  136  A    between atoms: _378  and  _379
REMARK  137  A    between atoms: _378  and  _381
REMARK  138  A    between atoms: _381  and  _382
REMARK  139  A    between atoms: _387  and  _389
REMARK  140  A    between atoms: _389  and  _390
REMARK  141  A    between atoms: _389  and  _392
REMARK  142  A    between atoms: _392  and  _393
REMARK  143  A    between atoms: _393  and  _394
REMARK  144  A    between atoms: _394  and  _395
REMARK                            x       y       z     vdW  Elec       q    Type
REMARK                         _______ _______ _______ _____ _____    ______ ____
ROOT
ATOM      1  O   HOH     1      -4.399  -1.430  11.958  0.00  0.00    +0.000 OA
ENDROOT
TORSDOF 0
