REMARK  Name = ../refined-set-2016/4qsu/4qsu_pocket.pdb
REMARK  107 active torsions:
REMARK  status: ('A' for Active; 'I' for Inactive)
REMARK    1  A    between atoms: _1  and  _3
REMARK    2  A    between atoms: _3  and  _4
REMARK    3  A    between atoms: _3  and  _6
REMARK    4  A    between atoms: _6  and  _7
REMARK    5  A    between atoms: _7  and  _8
REMARK    6  A    between atoms: _8  and  _9
REMARK    7  A    between atoms: _18  and  _20
REMARK    8  A    between atoms: _20  and  _21
REMARK    9  A    between atoms: _20  and  _23
REMARK   10  A    between atoms: _26  and  _28
REMARK   11  A    between atoms: _28  and  _29
REMARK   12  A    between atoms: _28  and  _31
REMARK   13  A    between atoms: _31  and  _32
REMARK   14  A    between atoms: _38  and  _40
REMARK   15  A    between atoms: _40  and  _41
REMARK   16  A    between atoms: _40  and  _43
REMARK   17  A    between atoms: _43  and  _44
REMARK   18  A    between atoms: _47  and  _49
REMARK   19  A    between atoms: _49  and  _50
REMARK   20  A    between atoms: _49  and  _52
REMARK   21  A    between atoms: _52  and  _53
REMARK   22  A    between atoms: _53  and  _54
REMARK   23  A    between atoms: _54  and  _55
REMARK   24  A    between atoms: _55  and  _56
REMARK   25  A    between atoms: _61  and  _62
REMARK   26  A    between atoms: _67  and  _69
REMARK   27  A    between atoms: _69  and  _70
REMARK   28  A    between atoms: _69  and  _72
REMARK   29  A    between atoms: _75  and  _77
REMARK   30  A    between atoms: _77  and  _78
REMARK   31  A    between atoms: _77  and  _80
REMARK   32  A    between atoms: _80  and  _81
REMARK   33  A    between atoms: _84  and  _86
REMARK   34  A    between atoms: _86  and  _87
REMARK   35  A    between atoms: _86  and  _89
REMARK   36  A    between atoms: _89  and  _90
REMARK   37  A    between atoms: _90  and  _91
REMARK   38  A    between atoms: _94  and  _96
REMARK   39  A    between atoms: _96  and  _97
REMARK   40  A    between atoms: _96  and  _99
REMARK   41  A    between atoms: _102  and  _104
REMARK   42  A    between atoms: _104  and  _105
REMARK   43  A    between atoms: _104  and  _107
REMARK   44  A    between atoms: _107  and  _108
REMARK   45  A    between atoms: _113  and  _114
REMARK   46  A    between atoms: _116  and  _118
REMARK   47  A    between atoms: _118  and  _119
REMARK   48  A    between atoms: _118  and  _121
REMARK   49  A    between atoms: _121  and  _122
REMARK   50  A    between atoms: _125  and  _127
REMARK   51  A    between atoms: _127  and  _128
REMARK   52  A    between atoms: _127  and  _130
REMARK   53  A    between atoms: _130  and  _131
REMARK   54  A    between atoms: _131  and  _132
REMARK   55  A    between atoms: _134  and  _136
REMARK   56  A    between atoms: _136  and  _137
REMARK   57  A    between atoms: _136  and  _139
REMARK   58  A    between atoms: _139  and  _140
REMARK   59  A    between atoms: _143  and  _145
REMARK   60  A    between atoms: _145  and  _146
REMARK   61  A    between atoms: _145  and  _148
REMARK   62  A    between atoms: _148  and  _149
REMARK   63  A    between atoms: _152  and  _154
REMARK   64  A    between atoms: _154  and  _155
REMARK   65  A    between atoms: _154  and  _157
REMARK   66  A    between atoms: _159  and  _161
REMARK   67  A    between atoms: _161  and  _162
REMARK   68  A    between atoms: _161  and  _164
REMARK   69  A    between atoms: _164  and  _165
REMARK   70  A    between atoms: _170  and  _172
REMARK   71  A    between atoms: _172  and  _173
REMARK   72  A    between atoms: _176  and  _178
REMARK   73  A    between atoms: _178  and  _179
REMARK   74  A    between atoms: _178  and  _181
REMARK   75  A    between atoms: _181  and  _182
REMARK   76  A    between atoms: _185  and  _187
REMARK   77  A    between atoms: _187  and  _188
REMARK   78  A    between atoms: _187  and  _190
REMARK   79  A    between atoms: _190  and  _191
REMARK   80  A    between atoms: _191  and  _192
REMARK   81  A    between atoms: _195  and  _197
REMARK   82  A    between atoms: _197  and  _198
REMARK   83  A    between atoms: _197  and  _200
REMARK   84  A    between atoms: _200  and  _201
REMARK   85  A    between atoms: _206  and  _207
REMARK   86  A    between atoms: _209  and  _211
REMARK   87  A    between atoms: _211  and  _212
REMARK   88  A    between atoms: _211  and  _214
REMARK   89  A    between atoms: _214  and  _215
REMARK   90  A    between atoms: _220  and  _222
REMARK   91  A    between atoms: _222  and  _223
REMARK   92  A    between atoms: _225  and  _227
REMARK   93  A    between atoms: _227  and  _228
REMARK   94  A    between atoms: _227  and  _230
REMARK   95  A    between atoms: _230  and  _231
REMARK   96  A    between atoms: _234  and  _236
REMARK   97  A    between atoms: _236  and  _237
REMARK   98  A    between atoms: _236  and  _239
REMARK   99  A    between atoms: _239  and  _240
REMARK  100  A    between atoms: _243  and  _245
REMARK  101  A    between atoms: _245  and  _246
REMARK  102  A    between atoms: _245  and  _248
REMARK  103  A    between atoms: _248  and  _249
REMARK  104  A    between atoms: _249  and  _250
REMARK  105  A    between atoms: _250  and  _251
REMARK  106  A    between atoms: _260  and  _262
REMARK  107  A    between atoms: _262  and  _263
REMARK                            x       y       z     vdW  Elec       q    Type
REMARK                         _______ _______ _______ _____ _____    ______ ____
ROOT
ATOM      1  CA  THR A   4      20.264  47.351  -2.101  0.00  0.00    +0.176 C 
ENDROOT
BRANCH   1   2
ATOM      2  C   THR A   4      19.746  48.632  -2.784  0.00  0.00    +0.243 C 
ATOM      3  O   THR A   4      18.828  49.275  -2.285  0.00  0.00    -0.273 OA
ATOM      4  N   LYS A   5      20.358  48.988  -3.893  0.00  0.00    -0.297 N 
ATOM      5  H   LYS A   5      21.096  48.370  -4.287  0.00  0.00    +0.150 HD
BRANCH   4   6
ATOM      6  CA  LYS A   5      20.030  50.213  -4.573  0.00  0.00    +0.149 C 
BRANCH   6   7
ATOM      7  C   LYS A   5      20.049  49.922  -6.047  0.00  0.00    +0.244 C 
ATOM      8  O   LYS A   5      20.753  49.001  -6.496  0.00  0.00    -0.273 OA
ATOM      9  N   PRO A   6      19.343  50.747  -6.827  0.00  0.00    -0.272 N 
ATOM     10  CD  PRO A   6      18.507  51.890  -6.414  0.00  0.00    +0.094 C 
ATOM     11  CG  PRO A   6      17.779  52.267  -7.679  0.00  0.00    +0.024 C 
ATOM     12  CB  PRO A   6      18.605  51.801  -8.798  0.00  0.00    +0.031 C 
ATOM     13  CA  PRO A   6      19.449  50.632  -8.270  0.00  0.00    +0.152 C 
BRANCH  13  14
ATOM     14  C   PRO A   6      20.893  50.783  -8.755  0.00  0.00    +0.241 C 
ATOM     15  O   PRO A   6      21.707  51.386  -8.096  0.00  0.00    -0.273 OA
ATOM     16  N   VAL A   7      21.174  50.246  -9.924  0.00  0.00    -0.297 N 
ATOM     17  H   VAL A   7      20.419  49.752 -10.440  0.00  0.00    +0.150 HD
BRANCH  16  18
ATOM     18  CA  VAL A   7      22.482  50.315 -10.516  0.00  0.00    +0.149 C 
BRANCH  18  19
ATOM     19  C   VAL A   7      22.763  51.755 -10.954  0.00  0.00    +0.241 C 
ATOM     20  N   ASP A   8      23.979  52.210 -10.677  0.00  0.00    -0.298 N 
ATOM     21  H   ASP A   8      24.665  51.580 -10.215  0.00  0.00    +0.150 HD
ATOM     22  O   VAL A   7      21.898  52.434 -11.519  0.00  0.00    -0.273 OA
BRANCH  20  23
ATOM     23  CA  ASP A   8      24.373  53.572 -11.006  0.00  0.00    +0.148 C 
BRANCH  23  24
ATOM     24  C   ASP A   8      24.727  53.593 -12.497  0.00  0.00    +0.227 C 
ATOM     25  O   ASP A   8      25.650  52.891 -12.912  0.00  0.00    -0.286 OA
ENDBRANCH  23  24
BRANCH  23  26
ATOM     26  CB  ASP A   8      25.557  53.994 -10.131  0.00  0.00    +0.142 C 
BRANCH  26  27
ATOM     27  CG  ASP A   8      25.994  55.433 -10.371  0.00  0.00    +0.367 C 
ATOM     28  OD2 ASP A   8      26.989  55.839  -9.743  0.00  0.00    -0.246 OA
ATOM     29  OD1 ASP A   8      25.368  56.158 -11.177  0.00  0.00    -0.246 OA
ENDBRANCH  26  27
ENDBRANCH  23  26
ENDBRANCH  20  23
ENDBRANCH  18  19
BRANCH  18  30
ATOM     30  CB  VAL A   7      22.593  49.359 -11.726  0.00  0.00    +0.027 C 
ATOM     31  CG2 VAL A   7      22.433  47.921 -11.280  0.00  0.00    +0.002 C 
ATOM     32  CG1 VAL A   7      23.923  49.543 -12.441  0.00  0.00    +0.002 C 
ENDBRANCH  18  30
ENDBRANCH  16  18
ENDBRANCH  13  14
ENDBRANCH   6   7
BRANCH   6  33
ATOM     33  CB  LYS A   5      21.112  51.273  -4.303  0.00  0.00    +0.029 C 
BRANCH  33  34
ATOM     34  CG  LYS A   5      21.165  51.835  -2.891  0.00  0.00    +0.000 C 
BRANCH  34  35
ATOM     35  CD  LYS A   5      19.939  52.674  -2.504  0.00  0.00    -0.024 C 
BRANCH  35  36
ATOM     36  CE  LYS A   5      19.744  52.760  -0.975  0.00  0.00    -0.086 C 
BRANCH  36  37
ATOM     37  NZ  LYS A   5      18.417  53.349  -0.557  0.00  0.00    +0.380 N 
ATOM     38  HZ1 LYS A   5      18.361  53.373   0.481  0.00  0.00    -0.089 HD
ATOM     39  HZ2 LYS A   5      18.334  54.315  -0.932  0.00  0.00    -0.089 HD
ATOM     40  HZ3 LYS A   5      17.645  52.762  -0.933  0.00  0.00    -0.089 HD
ENDBRANCH  36  37
ENDBRANCH  35  36
ENDBRANCH  34  35
ENDBRANCH  33  34
ENDBRANCH   6  33
ENDBRANCH   4   6
ENDBRANCH   1   2
BRANCH   1  42
ATOM     41  C   PHE A   3      20.406  45.618  -3.756  0.00  0.00    +0.241 C 
ATOM     42  N   THR A   4      21.047  46.488  -2.976  0.00  0.00    -0.295 N 
ATOM     43  H   THR A   4      22.085  46.550  -2.991  0.00  0.00    +0.150 HD
ATOM     44  O   PHE A   3      19.166  45.626  -3.866  0.00  0.00    -0.273 OA
BRANCH  41  45
ATOM     45  CA  PHE A   3      21.229  44.567  -4.525  0.00  0.00    +0.153 C 
BRANCH  45  47
ATOM     46  C   VAL A   2      23.552  45.301  -4.863  0.00  0.00    +0.241 C 
ATOM     47  N   PHE A   3      22.664  44.611  -4.153  0.00  0.00    -0.297 N 
ATOM     48  H   PHE A   3      22.985  44.088  -3.313  0.00  0.00    +0.150 HD
ATOM     49  O   VAL A   2      23.245  45.948  -5.869  0.00  0.00    -0.273 OA
BRANCH  46  50
ATOM     50  CA  VAL A   2      25.035  45.233  -4.391  0.00  0.00    +0.148 C 
BRANCH  50  53
ATOM     51  C   ARG A   1      24.630  45.673  -2.046  0.00  0.00    +0.238 C 
ATOM     52  O   ARG A   1      23.964  46.707  -2.319  0.00  0.00    -0.274 OA
ATOM     53  N   VAL A   2      25.131  44.888  -2.981  0.00  0.00    -0.297 N 
ATOM     54  H   VAL A   2      25.604  44.004  -2.704  0.00  0.00    +0.150 HD
BRANCH  51  55
ATOM     55  CA  ARG A   1      24.865  45.245  -0.615  0.00  0.00    +0.145 C 
BRANCH  55  56
ATOM     56  N   ARG A   1      24.720  43.815  -0.410  0.00  0.00    -0.238 NA
ATOM     57  H   ARG A   1      25.467  43.288   0.086  0.00  0.00    +0.142 HD
ENDBRANCH  55  56
BRANCH  55  58
ATOM     58  CB  ARG A   1      26.230  45.720  -0.138  0.00  0.00    +0.030 C 
BRANCH  58  59
ATOM     59  CG  ARG A   1      26.440  47.195  -0.315  0.00  0.00    +0.045 C 
BRANCH  59  60
ATOM     60  CD  ARG A   1      27.865  47.540   0.094  0.00  0.00    +0.174 C 
BRANCH  60  61
ATOM     61  NE  ARG A   1      28.034  48.967   0.353  0.00  0.00    -0.265 N 
ATOM     62  CZ  ARG A   1      27.531  49.623   1.409  0.00  0.00    +0.342 C 
ATOM     63  NH2 ARG A   1      26.792  49.002   2.331  0.00  0.00    -0.292 N 
ATOM     64 HH21 ARG A   1      26.414  49.535   3.140  0.00  0.00    +0.255 HD
ATOM     65 HH22 ARG A   1      26.594  47.985   2.240  0.00  0.00    +0.255 HD
ATOM     66  NH1 ARG A   1      27.760  50.927   1.543  0.00  0.00    -0.292 N 
ATOM     67 HH11 ARG A   1      27.373  51.442   2.360  0.00  0.00    +0.255 HD
ATOM     68 HH12 ARG A   1      28.326  51.431   0.831  0.00  0.00    +0.255 HD
ATOM     69  HE  ARG A   1      28.587  49.517  -0.335  0.00  0.00    +0.259 HD
ENDBRANCH  60  61
ENDBRANCH  59  60
ENDBRANCH  58  59
ENDBRANCH  55  58
ENDBRANCH  51  55
ENDBRANCH  50  53
BRANCH  50  70
ATOM     70  CB  VAL A   2      25.842  44.228  -5.240  0.00  0.00    +0.027 C 
ATOM     71  CG2 VAL A   2      25.257  42.817  -5.180  0.00  0.00    +0.002 C 
ATOM     72  CG1 VAL A   2      25.943  44.664  -6.664  0.00  0.00    +0.002 C 
ENDBRANCH  50  70
ENDBRANCH  46  50
ENDBRANCH  45  47
BRANCH  45  73
ATOM     73  CB  PHE A   3      20.665  43.167  -4.256  0.00  0.00    +0.055 C 
BRANCH  73  74
ATOM     74  CG  PHE A   3      21.472  42.054  -4.888  0.00  0.00    -0.020 A 
ATOM     75  CD2 PHE A   3      22.051  41.076  -4.109  0.00  0.00    -0.004 A 
ATOM     76  CE2 PHE A   3      22.827  40.067  -4.682  0.00  0.00    -0.000 A 
ATOM     77  CZ  PHE A   3      22.973  40.019  -6.068  0.00  0.00    -0.000 A 
ATOM     78  CE1 PHE A   3      22.364  40.998  -6.863  0.00  0.00    -0.000 A 
ATOM     79  CD1 PHE A   3      21.617  41.996  -6.270  0.00  0.00    -0.004 A 
ENDBRANCH  73  74
ENDBRANCH  45  73
ENDBRANCH  41  45
ENDBRANCH   1  42
BRANCH   1  80
ATOM     80  CB  THR A   4      21.013  47.741  -0.842  0.00  0.00    +0.137 C 
ATOM     81  CG2 THR A   4      21.227  46.520  -0.026  0.00  0.00    +0.034 C 
BRANCH  80  82
ATOM     82  OG1 THR A   4      22.242  48.389  -1.187  0.00  0.00    -0.382 OA
ATOM     83  HG1 THR A   4      22.801  47.771  -1.722  0.00  0.00    +0.210 HD
ENDBRANCH  80  82
ENDBRANCH   1  80
TORSDOF 32
REMARK  Name = ../refined-set-2016/4qsu/4qsu_pocket.pdb
REMARK  107 active torsions:
REMARK  status: ('A' for Active; 'I' for Inactive)
REMARK    1  A    between atoms: _1  and  _3
REMARK    2  A    between atoms: _3  and  _4
REMARK    3  A    between atoms: _3  and  _6
REMARK    4  A    between atoms: _6  and  _7
REMARK    5  A    between atoms: _7  and  _8
REMARK    6  A    between atoms: _8  and  _9
REMARK    7  A    between atoms: _18  and  _20
REMARK    8  A    between atoms: _20  and  _21
REMARK    9  A    between atoms: _20  and  _23
REMARK   10  A    between atoms: _26  and  _28
REMARK   11  A    between atoms: _28  and  _29
REMARK   12  A    between atoms: _28  and  _31
REMARK   13  A    between atoms: _31  and  _32
REMARK   14  A    between atoms: _38  and  _40
REMARK   15  A    between atoms: _40  and  _41
REMARK   16  A    between atoms: _40  and  _43
REMARK   17  A    between atoms: _43  and  _44
REMARK   18  A    between atoms: _47  and  _49
REMARK   19  A    between atoms: _49  and  _50
REMARK   20  A    between atoms: _49  and  _52
REMARK   21  A    between atoms: _52  and  _53
REMARK   22  A    between atoms: _53  and  _54
REMARK   23  A    between atoms: _54  and  _55
REMARK   24  A    between atoms: _55  and  _56
REMARK   25  A    between atoms: _61  and  _62
REMARK   26  A    between atoms: _67  and  _69
REMARK   27  A    between atoms: _69  and  _70
REMARK   28  A    between atoms: _69  and  _72
REMARK   29  A    between atoms: _75  and  _77
REMARK   30  A    between atoms: _77  and  _78
REMARK   31  A    between atoms: _77  and  _80
REMARK   32  A    between atoms: _80  and  _81
REMARK   33  A    between atoms: _84  and  _86
REMARK   34  A    between atoms: _86  and  _87
REMARK   35  A    between atoms: _86  and  _89
REMARK   36  A    between atoms: _89  and  _90
REMARK   37  A    between atoms: _90  and  _91
REMARK   38  A    between atoms: _94  and  _96
REMARK   39  A    between atoms: _96  and  _97
REMARK   40  A    between atoms: _96  and  _99
REMARK   41  A    between atoms: _102  and  _104
REMARK   42  A    between atoms: _104  and  _105
REMARK   43  A    between atoms: _104  and  _107
REMARK   44  A    between atoms: _107  and  _108
REMARK   45  A    between atoms: _113  and  _114
REMARK   46  A    between atoms: _116  and  _118
REMARK   47  A    between atoms: _118  and  _119
REMARK   48  A    between atoms: _118  and  _121
REMARK   49  A    between atoms: _121  and  _122
REMARK   50  A    between atoms: _125  and  _127
REMARK   51  A    between atoms: _127  and  _128
REMARK   52  A    between atoms: _127  and  _130
REMARK   53  A    between atoms: _130  and  _131
REMARK   54  A    between atoms: _131  and  _132
REMARK   55  A    between atoms: _134  and  _136
REMARK   56  A    between atoms: _136  and  _137
REMARK   57  A    between atoms: _136  and  _139
REMARK   58  A    between atoms: _139  and  _140
REMARK   59  A    between atoms: _143  and  _145
REMARK   60  A    between atoms: _145  and  _146
REMARK   61  A    between atoms: _145  and  _148
REMARK   62  A    between atoms: _148  and  _149
REMARK   63  A    between atoms: _152  and  _154
REMARK   64  A    between atoms: _154  and  _155
REMARK   65  A    between atoms: _154  and  _157
REMARK   66  A    between atoms: _159  and  _161
REMARK   67  A    between atoms: _161  and  _162
REMARK   68  A    between atoms: _161  and  _164
REMARK   69  A    between atoms: _164  and  _165
REMARK   70  A    between atoms: _170  and  _172
REMARK   71  A    between atoms: _172  and  _173
REMARK   72  A    between atoms: _176  and  _178
REMARK   73  A    between atoms: _178  and  _179
REMARK   74  A    between atoms: _178  and  _181
REMARK   75  A    between atoms: _181  and  _182
REMARK   76  A    between atoms: _185  and  _187
REMARK   77  A    between atoms: _187  and  _188
REMARK   78  A    between atoms: _187  and  _190
REMARK   79  A    between atoms: _190  and  _191
REMARK   80  A    between atoms: _191  and  _192
REMARK   81  A    between atoms: _195  and  _197
REMARK   82  A    between atoms: _197  and  _198
REMARK   83  A    between atoms: _197  and  _200
REMARK   84  A    between atoms: _200  and  _201
REMARK   85  A    between atoms: _206  and  _207
REMARK   86  A    between atoms: _209  and  _211
REMARK   87  A    between atoms: _211  and  _212
REMARK   88  A    between atoms: _211  and  _214
REMARK   89  A    between atoms: _214  and  _215
REMARK   90  A    between atoms: _220  and  _222
REMARK   91  A    between atoms: _222  and  _223
REMARK   92  A    between atoms: _225  and  _227
REMARK   93  A    between atoms: _227  and  _228
REMARK   94  A    between atoms: _227  and  _230
REMARK   95  A    between atoms: _230  and  _231
REMARK   96  A    between atoms: _234  and  _236
REMARK   97  A    between atoms: _236  and  _237
REMARK   98  A    between atoms: _236  and  _239
REMARK   99  A    between atoms: _239  and  _240
REMARK  100  A    between atoms: _243  and  _245
REMARK  101  A    between atoms: _245  and  _246
REMARK  102  A    between atoms: _245  and  _248
REMARK  103  A    between atoms: _248  and  _249
REMARK  104  A    between atoms: _249  and  _250
REMARK  105  A    between atoms: _250  and  _251
REMARK  106  A    between atoms: _260  and  _262
REMARK  107  A    between atoms: _262  and  _263
REMARK                            x       y       z     vdW  Elec       q    Type
REMARK                         _______ _______ _______ _____ _____    ______ ____
ROOT
ATOM      1  C   GLU A   1      28.844  51.985 -14.145  0.00  0.00    +0.238 C 
ATOM      2  N   VAL A   2      27.565  51.735 -14.442  0.00  0.00    -0.298 N 
ATOM      3  H   VAL A   2      26.818  52.297 -13.987  0.00  0.00    +0.150 HD
ATOM      4  O   GLU A   1      29.775  51.386 -14.669  0.00  0.00    -0.274 OA
ENDROOT
BRANCH   1   5
ATOM      5  CA  GLU A   1      29.140  53.077 -13.123  0.00  0.00    +0.145 C 
BRANCH   5   6
ATOM      6  N   GLU A   1      28.295  54.232 -13.318  0.00  0.00    -0.238 NA
ATOM      7  H   GLU A   1      27.550  54.452 -12.626  0.00  0.00    +0.142 HD
ENDBRANCH   5   6
BRANCH   5   8
ATOM      8  CB  GLU A   1      28.997  52.545 -11.713  0.00  0.00    +0.038 C 
BRANCH   8   9
ATOM      9  CG  GLU A   1      29.293  53.588 -10.654  0.00  0.00    +0.116 C 
BRANCH   9  10
ATOM     10  CD  GLU A   1      29.105  53.038  -9.258  0.00  0.00    +0.365 C 
ATOM     11  OE2 GLU A   1      28.952  53.839  -8.312  0.00  0.00    -0.246 OA
ATOM     12  OE1 GLU A   1      29.111  51.798  -9.108  0.00  0.00    -0.246 OA
ENDBRANCH   9  10
ENDBRANCH   8   9
ENDBRANCH   5   8
ENDBRANCH   1   5
BRANCH   2  13
ATOM     13  CA  VAL A   2      27.191  50.678 -15.402  0.00  0.00    +0.137 C 
BRANCH  13  14
ATOM     14  CB  VAL A   2      26.536  49.456 -14.696  0.00  0.00    +0.026 C 
ATOM     15  CG2 VAL A   2      27.185  49.198 -13.340  0.00  0.00    +0.002 C 
ATOM     16  CG1 VAL A   2      26.626  48.211 -15.575  0.00  0.00    +0.002 C 
ENDBRANCH  13  14
BRANCH  13  17
ATOM     17  C   VAL A   2      26.229  51.240 -16.453  0.00  0.00    +0.227 C 
ATOM     18  O   VAL A   2      25.015  51.147 -16.316  0.00  0.00    -0.286 OA
ENDBRANCH  13  17
ENDBRANCH   2  13
TORSDOF 8
REMARK  Name = ../refined-set-2016/4qsu/4qsu_pocket.pdb
REMARK  107 active torsions:
REMARK  status: ('A' for Active; 'I' for Inactive)
REMARK    1  A    between atoms: _1  and  _3
REMARK    2  A    between atoms: _3  and  _4
REMARK    3  A    between atoms: _3  and  _6
REMARK    4  A    between atoms: _6  and  _7
REMARK    5  A    between atoms: _7  and  _8
REMARK    6  A    between atoms: _8  and  _9
REMARK    7  A    between atoms: _18  and  _20
REMARK    8  A    between atoms: _20  and  _21
REMARK    9  A    between atoms: _20  and  _23
REMARK   10  A    between atoms: _26  and  _28
REMARK   11  A    between atoms: _28  and  _29
REMARK   12  A    between atoms: _28  and  _31
REMARK   13  A    between atoms: _31  and  _32
REMARK   14  A    between atoms: _38  and  _40
REMARK   15  A    between atoms: _40  and  _41
REMARK   16  A    between atoms: _40  and  _43
REMARK   17  A    between atoms: _43  and  _44
REMARK   18  A    between atoms: _47  and  _49
REMARK   19  A    between atoms: _49  and  _50
REMARK   20  A    between atoms: _49  and  _52
REMARK   21  A    between atoms: _52  and  _53
REMARK   22  A    between atoms: _53  and  _54
REMARK   23  A    between atoms: _54  and  _55
REMARK   24  A    between atoms: _55  and  _56
REMARK   25  A    between atoms: _61  and  _62
REMARK   26  A    between atoms: _67  and  _69
REMARK   27  A    between atoms: _69  and  _70
REMARK   28  A    between atoms: _69  and  _72
REMARK   29  A    between atoms: _75  and  _77
REMARK   30  A    between atoms: _77  and  _78
REMARK   31  A    between atoms: _77  and  _80
REMARK   32  A    between atoms: _80  and  _81
REMARK   33  A    between atoms: _84  and  _86
REMARK   34  A    between atoms: _86  and  _87
REMARK   35  A    between atoms: _86  and  _89
REMARK   36  A    between atoms: _89  and  _90
REMARK   37  A    between atoms: _90  and  _91
REMARK   38  A    between atoms: _94  and  _96
REMARK   39  A    between atoms: _96  and  _97
REMARK   40  A    between atoms: _96  and  _99
REMARK   41  A    between atoms: _102  and  _104
REMARK   42  A    between atoms: _104  and  _105
REMARK   43  A    between atoms: _104  and  _107
REMARK   44  A    between atoms: _107  and  _108
REMARK   45  A    between atoms: _113  and  _114
REMARK   46  A    between atoms: _116  and  _118
REMARK   47  A    between atoms: _118  and  _119
REMARK   48  A    between atoms: _118  and  _121
REMARK   49  A    between atoms: _121  and  _122
REMARK   50  A    between atoms: _125  and  _127
REMARK   51  A    between atoms: _127  and  _128
REMARK   52  A    between atoms: _127  and  _130
REMARK   53  A    between atoms: _130  and  _131
REMARK   54  A    between atoms: _131  and  _132
REMARK   55  A    between atoms: _134  and  _136
REMARK   56  A    between atoms: _136  and  _137
REMARK   57  A    between atoms: _136  and  _139
REMARK   58  A    between atoms: _139  and  _140
REMARK   59  A    between atoms: _143  and  _145
REMARK   60  A    between atoms: _145  and  _146
REMARK   61  A    between atoms: _145  and  _148
REMARK   62  A    between atoms: _148  and  _149
REMARK   63  A    between atoms: _152  and  _154
REMARK   64  A    between atoms: _154  and  _155
REMARK   65  A    between atoms: _154  and  _157
REMARK   66  A    between atoms: _159  and  _161
REMARK   67  A    between atoms: _161  and  _162
REMARK   68  A    between atoms: _161  and  _164
REMARK   69  A    between atoms: _164  and  _165
REMARK   70  A    between atoms: _170  and  _172
REMARK   71  A    between atoms: _172  and  _173
REMARK   72  A    between atoms: _176  and  _178
REMARK   73  A    between atoms: _178  and  _179
REMARK   74  A    between atoms: _178  and  _181
REMARK   75  A    between atoms: _181  and  _182
REMARK   76  A    between atoms: _185  and  _187
REMARK   77  A    between atoms: _187  and  _188
REMARK   78  A    between atoms: _187  and  _190
REMARK   79  A    between atoms: _190  and  _191
REMARK   80  A    between atoms: _191  and  _192
REMARK   81  A    between atoms: _195  and  _197
REMARK   82  A    between atoms: _197  and  _198
REMARK   83  A    between atoms: _197  and  _200
REMARK   84  A    between atoms: _200  and  _201
REMARK   85  A    between atoms: _206  and  _207
REMARK   86  A    between atoms: _209  and  _211
REMARK   87  A    between atoms: _211  and  _212
REMARK   88  A    between atoms: _211  and  _214
REMARK   89  A    between atoms: _214  and  _215
REMARK   90  A    between atoms: _220  and  _222
REMARK   91  A    between atoms: _222  and  _223
REMARK   92  A    between atoms: _225  and  _227
REMARK   93  A    between atoms: _227  and  _228
REMARK   94  A    between atoms: _227  and  _230
REMARK   95  A    between atoms: _230  and  _231
REMARK   96  A    between atoms: _234  and  _236
REMARK   97  A    between atoms: _236  and  _237
REMARK   98  A    between atoms: _236  and  _239
REMARK   99  A    between atoms: _239  and  _240
REMARK  100  A    between atoms: _243  and  _245
REMARK  101  A    between atoms: _245  and  _246
REMARK  102  A    between atoms: _245  and  _248
REMARK  103  A    between atoms: _248  and  _249
REMARK  104  A    between atoms: _249  and  _250
REMARK  105  A    between atoms: _250  and  _251
REMARK  106  A    between atoms: _260  and  _262
REMARK  107  A    between atoms: _262  and  _263
REMARK                            x       y       z     vdW  Elec       q    Type
REMARK                         _______ _______ _______ _____ _____    ______ ____
ROOT
ATOM      1  CG  TYR A   1      22.084  47.408 -15.234  0.00  0.00    -0.020 A 
ATOM      2  CD2 TYR A   1      20.775  47.611 -14.774  0.00  0.00    -0.001 A 
ATOM      3  CE2 TYR A   1      20.121  46.639 -13.999  0.00  0.00    +0.036 A 
ATOM      4  CZ  TYR A   1      20.778  45.449 -13.700  0.00  0.00    +0.134 A 
ATOM      5  CE1 TYR A   1      22.076  45.227 -14.154  0.00  0.00    +0.036 A 
ATOM      6  CD1 TYR A   1      22.712  46.200 -14.925  0.00  0.00    -0.001 A 
ENDROOT
BRANCH   4   7
ATOM      7  OH  TYR A   1      20.139  44.498 -12.983  0.00  0.00    -0.506 OA
ATOM      8  HH  TYR A   1      20.652  44.308 -12.158  0.00  0.00    +0.292 HD
ENDBRANCH   4   7
BRANCH   1   9
ATOM      9  CB  TYR A   1      22.783  48.441 -16.073  0.00  0.00    +0.051 C 
BRANCH   9  10
ATOM     10  CA  TYR A   1      22.613  48.174 -17.565  0.00  0.00    +0.137 C 
BRANCH  10  11
ATOM     11  N   TYR A   1      23.455  49.052 -18.354  0.00  0.00    -0.239 NA
ATOM     12  H   TYR A   1      24.040  49.781 -17.899  0.00  0.00    +0.142 HD
ENDBRANCH  10  11
BRANCH  10  13
ATOM     13  C   TYR A   1      21.135  48.351 -17.966  0.00  0.00    +0.224 C 
ATOM     14  O   TYR A   1      20.430  47.372 -18.288  0.00  0.00    -0.287 OA
ENDBRANCH  10  13
ENDBRANCH   9  10
ENDBRANCH   1   9
TORSDOF 5
REMARK  Name = ../refined-set-2016/4qsu/4qsu_pocket.pdb
REMARK  107 active torsions:
REMARK  status: ('A' for Active; 'I' for Inactive)
REMARK    1  A    between atoms: _1  and  _3
REMARK    2  A    between atoms: _3  and  _4
REMARK    3  A    between atoms: _3  and  _6
REMARK    4  A    between atoms: _6  and  _7
REMARK    5  A    between atoms: _7  and  _8
REMARK    6  A    between atoms: _8  and  _9
REMARK    7  A    between atoms: _18  and  _20
REMARK    8  A    between atoms: _20  and  _21
REMARK    9  A    between atoms: _20  and  _23
REMARK   10  A    between atoms: _26  and  _28
REMARK   11  A    between atoms: _28  and  _29
REMARK   12  A    between atoms: _28  and  _31
REMARK   13  A    between atoms: _31  and  _32
REMARK   14  A    between atoms: _38  and  _40
REMARK   15  A    between atoms: _40  and  _41
REMARK   16  A    between atoms: _40  and  _43
REMARK   17  A    between atoms: _43  and  _44
REMARK   18  A    between atoms: _47  and  _49
REMARK   19  A    between atoms: _49  and  _50
REMARK   20  A    between atoms: _49  and  _52
REMARK   21  A    between atoms: _52  and  _53
REMARK   22  A    between atoms: _53  and  _54
REMARK   23  A    between atoms: _54  and  _55
REMARK   24  A    between atoms: _55  and  _56
REMARK   25  A    between atoms: _61  and  _62
REMARK   26  A    between atoms: _67  and  _69
REMARK   27  A    between atoms: _69  and  _70
REMARK   28  A    between atoms: _69  and  _72
REMARK   29  A    between atoms: _75  and  _77
REMARK   30  A    between atoms: _77  and  _78
REMARK   31  A    between atoms: _77  and  _80
REMARK   32  A    between atoms: _80  and  _81
REMARK   33  A    between atoms: _84  and  _86
REMARK   34  A    between atoms: _86  and  _87
REMARK   35  A    between atoms: _86  and  _89
REMARK   36  A    between atoms: _89  and  _90
REMARK   37  A    between atoms: _90  and  _91
REMARK   38  A    between atoms: _94  and  _96
REMARK   39  A    between atoms: _96  and  _97
REMARK   40  A    between atoms: _96  and  _99
REMARK   41  A    between atoms: _102  and  _104
REMARK   42  A    between atoms: _104  and  _105
REMARK   43  A    between atoms: _104  and  _107
REMARK   44  A    between atoms: _107  and  _108
REMARK   45  A    between atoms: _113  and  _114
REMARK   46  A    between atoms: _116  and  _118
REMARK   47  A    between atoms: _118  and  _119
REMARK   48  A    between atoms: _118  and  _121
REMARK   49  A    between atoms: _121  and  _122
REMARK   50  A    between atoms: _125  and  _127
REMARK   51  A    between atoms: _127  and  _128
REMARK   52  A    between atoms: _127  and  _130
REMARK   53  A    between atoms: _130  and  _131
REMARK   54  A    between atoms: _131  and  _132
REMARK   55  A    between atoms: _134  and  _136
REMARK   56  A    between atoms: _136  and  _137
REMARK   57  A    between atoms: _136  and  _139
REMARK   58  A    between atoms: _139  and  _140
REMARK   59  A    between atoms: _143  and  _145
REMARK   60  A    between atoms: _145  and  _146
REMARK   61  A    between atoms: _145  and  _148
REMARK   62  A    between atoms: _148  and  _149
REMARK   63  A    between atoms: _152  and  _154
REMARK   64  A    between atoms: _154  and  _155
REMARK   65  A    between atoms: _154  and  _157
REMARK   66  A    between atoms: _159  and  _161
REMARK   67  A    between atoms: _161  and  _162
REMARK   68  A    between atoms: _161  and  _164
REMARK   69  A    between atoms: _164  and  _165
REMARK   70  A    between atoms: _170  and  _172
REMARK   71  A    between atoms: _172  and  _173
REMARK   72  A    between atoms: _176  and  _178
REMARK   73  A    between atoms: _178  and  _179
REMARK   74  A    between atoms: _178  and  _181
REMARK   75  A    between atoms: _181  and  _182
REMARK   76  A    between atoms: _185  and  _187
REMARK   77  A    between atoms: _187  and  _188
REMARK   78  A    between atoms: _187  and  _190
REMARK   79  A    between atoms: _190  and  _191
REMARK   80  A    between atoms: _191  and  _192
REMARK   81  A    between atoms: _195  and  _197
REMARK   82  A    between atoms: _197  and  _198
REMARK   83  A    between atoms: _197  and  _200
REMARK   84  A    between atoms: _200  and  _201
REMARK   85  A    between atoms: _206  and  _207
REMARK   86  A    between atoms: _209  and  _211
REMARK   87  A    between atoms: _211  and  _212
REMARK   88  A    between atoms: _211  and  _214
REMARK   89  A    between atoms: _214  and  _215
REMARK   90  A    between atoms: _220  and  _222
REMARK   91  A    between atoms: _222  and  _223
REMARK   92  A    between atoms: _225  and  _227
REMARK   93  A    between atoms: _227  and  _228
REMARK   94  A    between atoms: _227  and  _230
REMARK   95  A    between atoms: _230  and  _231
REMARK   96  A    between atoms: _234  and  _236
REMARK   97  A    between atoms: _236  and  _237
REMARK   98  A    between atoms: _236  and  _239
REMARK   99  A    between atoms: _239  and  _240
REMARK  100  A    between atoms: _243  and  _245
REMARK  101  A    between atoms: _245  and  _246
REMARK  102  A    between atoms: _245  and  _248
REMARK  103  A    between atoms: _248  and  _249
REMARK  104  A    between atoms: _249  and  _250
REMARK  105  A    between atoms: _250  and  _251
REMARK  106  A    between atoms: _260  and  _262
REMARK  107  A    between atoms: _262  and  _263
REMARK                            x       y       z     vdW  Elec       q    Type
REMARK                         _______ _______ _______ _____ _____    ______ ____
ROOT
ATOM      1  CA  ILE A   1      18.035  44.674 -18.158  0.00  0.00    +0.133 C 
ENDROOT
BRANCH   1   2
ATOM      2  N   ILE A   1      18.991  45.141 -19.112  0.00  0.00    -0.239 NA
ATOM      3  H   ILE A   1      19.600  45.948 -18.868  0.00  0.00    +0.142 HD
ENDBRANCH   1   2
BRANCH   1   4
ATOM      4  CB  ILE A   1      18.624  44.692 -16.739  0.00  0.00    +0.023 C 
ATOM      5  CG2 ILE A   1      17.569  44.268 -15.760  0.00  0.00    +0.002 C 
BRANCH   4   6
ATOM      6  CG1 ILE A   1      19.788  43.707 -16.687  0.00  0.00    +0.002 C 
ATOM      7  CD1 ILE A   1      19.352  42.247 -16.823  0.00  0.00    +0.000 C 
ENDBRANCH   4   6
ENDBRANCH   1   4
BRANCH   1   8
ATOM      8  C   ILE A   1      16.783  45.548 -18.254  0.00  0.00    +0.224 C 
ATOM      9  O   ILE A   1      16.817  46.767 -17.947  0.00  0.00    -0.287 OA
ENDBRANCH   1   8
TORSDOF 4
REMARK  Name = ../refined-set-2016/4qsu/4qsu_pocket.pdb
REMARK  107 active torsions:
REMARK  status: ('A' for Active; 'I' for Inactive)
REMARK    1  A    between atoms: _1  and  _3
REMARK    2  A    between atoms: _3  and  _4
REMARK    3  A    between atoms: _3  and  _6
REMARK    4  A    between atoms: _6  and  _7
REMARK    5  A    between atoms: _7  and  _8
REMARK    6  A    between atoms: _8  and  _9
REMARK    7  A    between atoms: _18  and  _20
REMARK    8  A    between atoms: _20  and  _21
REMARK    9  A    between atoms: _20  and  _23
REMARK   10  A    between atoms: _26  and  _28
REMARK   11  A    between atoms: _28  and  _29
REMARK   12  A    between atoms: _28  and  _31
REMARK   13  A    between atoms: _31  and  _32
REMARK   14  A    between atoms: _38  and  _40
REMARK   15  A    between atoms: _40  and  _41
REMARK   16  A    between atoms: _40  and  _43
REMARK   17  A    between atoms: _43  and  _44
REMARK   18  A    between atoms: _47  and  _49
REMARK   19  A    between atoms: _49  and  _50
REMARK   20  A    between atoms: _49  and  _52
REMARK   21  A    between atoms: _52  and  _53
REMARK   22  A    between atoms: _53  and  _54
REMARK   23  A    between atoms: _54  and  _55
REMARK   24  A    between atoms: _55  and  _56
REMARK   25  A    between atoms: _61  and  _62
REMARK   26  A    between atoms: _67  and  _69
REMARK   27  A    between atoms: _69  and  _70
REMARK   28  A    between atoms: _69  and  _72
REMARK   29  A    between atoms: _75  and  _77
REMARK   30  A    between atoms: _77  and  _78
REMARK   31  A    between atoms: _77  and  _80
REMARK   32  A    between atoms: _80  and  _81
REMARK   33  A    between atoms: _84  and  _86
REMARK   34  A    between atoms: _86  and  _87
REMARK   35  A    between atoms: _86  and  _89
REMARK   36  A    between atoms: _89  and  _90
REMARK   37  A    between atoms: _90  and  _91
REMARK   38  A    between atoms: _94  and  _96
REMARK   39  A    between atoms: _96  and  _97
REMARK   40  A    between atoms: _96  and  _99
REMARK   41  A    between atoms: _102  and  _104
REMARK   42  A    between atoms: _104  and  _105
REMARK   43  A    between atoms: _104  and  _107
REMARK   44  A    between atoms: _107  and  _108
REMARK   45  A    between atoms: _113  and  _114
REMARK   46  A    between atoms: _116  and  _118
REMARK   47  A    between atoms: _118  and  _119
REMARK   48  A    between atoms: _118  and  _121
REMARK   49  A    between atoms: _121  and  _122
REMARK   50  A    between atoms: _125  and  _127
REMARK   51  A    between atoms: _127  and  _128
REMARK   52  A    between atoms: _127  and  _130
REMARK   53  A    between atoms: _130  and  _131
REMARK   54  A    between atoms: _131  and  _132
REMARK   55  A    between atoms: _134  and  _136
REMARK   56  A    between atoms: _136  and  _137
REMARK   57  A    between atoms: _136  and  _139
REMARK   58  A    between atoms: _139  and  _140
REMARK   59  A    between atoms: _143  and  _145
REMARK   60  A    between atoms: _145  and  _146
REMARK   61  A    between atoms: _145  and  _148
REMARK   62  A    between atoms: _148  and  _149
REMARK   63  A    between atoms: _152  and  _154
REMARK   64  A    between atoms: _154  and  _155
REMARK   65  A    between atoms: _154  and  _157
REMARK   66  A    between atoms: _159  and  _161
REMARK   67  A    between atoms: _161  and  _162
REMARK   68  A    between atoms: _161  and  _164
REMARK   69  A    between atoms: _164  and  _165
REMARK   70  A    between atoms: _170  and  _172
REMARK   71  A    between atoms: _172  and  _173
REMARK   72  A    between atoms: _176  and  _178
REMARK   73  A    between atoms: _178  and  _179
REMARK   74  A    between atoms: _178  and  _181
REMARK   75  A    between atoms: _181  and  _182
REMARK   76  A    between atoms: _185  and  _187
REMARK   77  A    between atoms: _187  and  _188
REMARK   78  A    between atoms: _187  and  _190
REMARK   79  A    between atoms: _190  and  _191
REMARK   80  A    between atoms: _191  and  _192
REMARK   81  A    between atoms: _195  and  _197
REMARK   82  A    between atoms: _197  and  _198
REMARK   83  A    between atoms: _197  and  _200
REMARK   84  A    between atoms: _200  and  _201
REMARK   85  A    between atoms: _206  and  _207
REMARK   86  A    between atoms: _209  and  _211
REMARK   87  A    between atoms: _211  and  _212
REMARK   88  A    between atoms: _211  and  _214
REMARK   89  A    between atoms: _214  and  _215
REMARK   90  A    between atoms: _220  and  _222
REMARK   91  A    between atoms: _222  and  _223
REMARK   92  A    between atoms: _225  and  _227
REMARK   93  A    between atoms: _227  and  _228
REMARK   94  A    between atoms: _227  and  _230
REMARK   95  A    between atoms: _230  and  _231
REMARK   96  A    between atoms: _234  and  _236
REMARK   97  A    between atoms: _236  and  _237
REMARK   98  A    between atoms: _236  and  _239
REMARK   99  A    between atoms: _239  and  _240
REMARK  100  A    between atoms: _243  and  _245
REMARK  101  A    between atoms: _245  and  _246
REMARK  102  A    between atoms: _245  and  _248
REMARK  103  A    between atoms: _248  and  _249
REMARK  104  A    between atoms: _249  and  _250
REMARK  105  A    between atoms: _250  and  _251
REMARK  106  A    between atoms: _260  and  _262
REMARK  107  A    between atoms: _262  and  _263
REMARK                            x       y       z     vdW  Elec       q    Type
REMARK                         _______ _______ _______ _____ _____    ______ ____
ROOT
ATOM      1  C   MET A   1      15.867  45.630  -8.346  0.00  0.00    +0.238 C 
ATOM      2  N   ASP A   2      15.563  46.152  -7.168  0.00  0.00    -0.298 N 
ATOM      3  H   ASP A   2      14.616  46.553  -7.011  0.00  0.00    +0.150 HD
ATOM      4  O   MET A   1      16.928  45.099  -8.596  0.00  0.00    -0.274 OA
ENDROOT
BRANCH   1   5
ATOM      5  CA  MET A   1      14.778  45.653  -9.396  0.00  0.00    +0.146 C 
BRANCH   5   6
ATOM      6  N   MET A   1      15.422  45.714 -10.689  0.00  0.00    -0.238 NA
ATOM      7  H   MET A   1      16.337  45.244 -10.844  0.00  0.00    +0.142 HD
ENDBRANCH   5   6
BRANCH   5   8
ATOM      8  CB  MET A   1      13.869  44.420  -9.316  0.00  0.00    +0.038 C 
BRANCH   8   9
ATOM      9  CG  MET A   1      12.952  44.367  -8.087  0.00  0.00    +0.060 C 
BRANCH   9  10
ATOM     10  SD  MET A   1      11.945  45.826  -7.720  0.00  0.00    -0.139 S 
ATOM     11  CE  MET A   1      11.079  45.929  -9.277  0.00  0.00    +0.069 C 
ENDBRANCH   9  10
ENDBRANCH   8   9
ENDBRANCH   5   8
ENDBRANCH   1   5
BRANCH   2  12
ATOM     12  CA  ASP A   2      16.539  46.170  -6.092  0.00  0.00    +0.148 C 
BRANCH  12  13
ATOM     13  C   ASP A   2      15.737  46.312  -4.824  0.00  0.00    +0.227 C 
ATOM     14  O   ASP A   2      14.508  46.593  -4.858  0.00  0.00    -0.286 OA
ENDBRANCH  12  13
BRANCH  12  15
ATOM     15  CB  ASP A   2      17.504  47.339  -6.283  0.00  0.00    +0.142 C 
BRANCH  15  16
ATOM     16  CG  ASP A   2      16.821  48.661  -6.111  0.00  0.00    +0.367 C 
ATOM     17  OD2 ASP A   2      16.753  49.135  -4.975  0.00  0.00    -0.246 OA
ATOM     18  OD1 ASP A   2      16.233  49.162  -7.085  0.00  0.00    -0.246 OA
ENDBRANCH  15  16
ENDBRANCH  12  15
ENDBRANCH   2  12
TORSDOF 9
REMARK  Name = ../refined-set-2016/4qsu/4qsu_pocket.pdb
REMARK  107 active torsions:
REMARK  status: ('A' for Active; 'I' for Inactive)
REMARK    1  A    between atoms: _1  and  _3
REMARK    2  A    between atoms: _3  and  _4
REMARK    3  A    between atoms: _3  and  _6
REMARK    4  A    between atoms: _6  and  _7
REMARK    5  A    between atoms: _7  and  _8
REMARK    6  A    between atoms: _8  and  _9
REMARK    7  A    between atoms: _18  and  _20
REMARK    8  A    between atoms: _20  and  _21
REMARK    9  A    between atoms: _20  and  _23
REMARK   10  A    between atoms: _26  and  _28
REMARK   11  A    between atoms: _28  and  _29
REMARK   12  A    between atoms: _28  and  _31
REMARK   13  A    between atoms: _31  and  _32
REMARK   14  A    between atoms: _38  and  _40
REMARK   15  A    between atoms: _40  and  _41
REMARK   16  A    between atoms: _40  and  _43
REMARK   17  A    between atoms: _43  and  _44
REMARK   18  A    between atoms: _47  and  _49
REMARK   19  A    between atoms: _49  and  _50
REMARK   20  A    between atoms: _49  and  _52
REMARK   21  A    between atoms: _52  and  _53
REMARK   22  A    between atoms: _53  and  _54
REMARK   23  A    between atoms: _54  and  _55
REMARK   24  A    between atoms: _55  and  _56
REMARK   25  A    between atoms: _61  and  _62
REMARK   26  A    between atoms: _67  and  _69
REMARK   27  A    between atoms: _69  and  _70
REMARK   28  A    between atoms: _69  and  _72
REMARK   29  A    between atoms: _75  and  _77
REMARK   30  A    between atoms: _77  and  _78
REMARK   31  A    between atoms: _77  and  _80
REMARK   32  A    between atoms: _80  and  _81
REMARK   33  A    between atoms: _84  and  _86
REMARK   34  A    between atoms: _86  and  _87
REMARK   35  A    between atoms: _86  and  _89
REMARK   36  A    between atoms: _89  and  _90
REMARK   37  A    between atoms: _90  and  _91
REMARK   38  A    between atoms: _94  and  _96
REMARK   39  A    between atoms: _96  and  _97
REMARK   40  A    between atoms: _96  and  _99
REMARK   41  A    between atoms: _102  and  _104
REMARK   42  A    between atoms: _104  and  _105
REMARK   43  A    between atoms: _104  and  _107
REMARK   44  A    between atoms: _107  and  _108
REMARK   45  A    between atoms: _113  and  _114
REMARK   46  A    between atoms: _116  and  _118
REMARK   47  A    between atoms: _118  and  _119
REMARK   48  A    between atoms: _118  and  _121
REMARK   49  A    between atoms: _121  and  _122
REMARK   50  A    between atoms: _125  and  _127
REMARK   51  A    between atoms: _127  and  _128
REMARK   52  A    between atoms: _127  and  _130
REMARK   53  A    between atoms: _130  and  _131
REMARK   54  A    between atoms: _131  and  _132
REMARK   55  A    between atoms: _134  and  _136
REMARK   56  A    between atoms: _136  and  _137
REMARK   57  A    between atoms: _136  and  _139
REMARK   58  A    between atoms: _139  and  _140
REMARK   59  A    between atoms: _143  and  _145
REMARK   60  A    between atoms: _145  and  _146
REMARK   61  A    between atoms: _145  and  _148
REMARK   62  A    between atoms: _148  and  _149
REMARK   63  A    between atoms: _152  and  _154
REMARK   64  A    between atoms: _154  and  _155
REMARK   65  A    between atoms: _154  and  _157
REMARK   66  A    between atoms: _159  and  _161
REMARK   67  A    between atoms: _161  and  _162
REMARK   68  A    between atoms: _161  and  _164
REMARK   69  A    between atoms: _164  and  _165
REMARK   70  A    between atoms: _170  and  _172
REMARK   71  A    between atoms: _172  and  _173
REMARK   72  A    between atoms: _176  and  _178
REMARK   73  A    between atoms: _178  and  _179
REMARK   74  A    between atoms: _178  and  _181
REMARK   75  A    between atoms: _181  and  _182
REMARK   76  A    between atoms: _185  and  _187
REMARK   77  A    between atoms: _187  and  _188
REMARK   78  A    between atoms: _187  and  _190
REMARK   79  A    between atoms: _190  and  _191
REMARK   80  A    between atoms: _191  and  _192
REMARK   81  A    between atoms: _195  and  _197
REMARK   82  A    between atoms: _197  and  _198
REMARK   83  A    between atoms: _197  and  _200
REMARK   84  A    between atoms: _200  and  _201
REMARK   85  A    between atoms: _206  and  _207
REMARK   86  A    between atoms: _209  and  _211
REMARK   87  A    between atoms: _211  and  _212
REMARK   88  A    between atoms: _211  and  _214
REMARK   89  A    between atoms: _214  and  _215
REMARK   90  A    between atoms: _220  and  _222
REMARK   91  A    between atoms: _222  and  _223
REMARK   92  A    between atoms: _225  and  _227
REMARK   93  A    between atoms: _227  and  _228
REMARK   94  A    between atoms: _227  and  _230
REMARK   95  A    between atoms: _230  and  _231
REMARK   96  A    between atoms: _234  and  _236
REMARK   97  A    between atoms: _236  and  _237
REMARK   98  A    between atoms: _236  and  _239
REMARK   99  A    between atoms: _239  and  _240
REMARK  100  A    between atoms: _243  and  _245
REMARK  101  A    between atoms: _245  and  _246
REMARK  102  A    between atoms: _245  and  _248
REMARK  103  A    between atoms: _248  and  _249
REMARK  104  A    between atoms: _249  and  _250
REMARK  105  A    between atoms: _250  and  _251
REMARK  106  A    between atoms: _260  and  _262
REMARK  107  A    between atoms: _262  and  _263
REMARK                            x       y       z     vdW  Elec       q    Type
REMARK                         _______ _______ _______ _____ _____    ______ ____
ROOT
ATOM      1  C   ILE A   1      17.534  39.646  -8.903  0.00  0.00    +0.238 C 
ATOM      2  N   CYS A   2      17.179  38.419  -8.577  0.00  0.00    -0.298 N 
ATOM      3  H   CYS A   2      16.260  38.257  -8.118  0.00  0.00    +0.150 HD
ATOM      4  O   ILE A   1      18.614  39.890  -9.526  0.00  0.00    -0.274 OA
ENDROOT
BRANCH   1   5
ATOM      5  CA  ILE A   1      16.508  40.737  -8.569  0.00  0.00    +0.145 C 
BRANCH   5   6
ATOM      6  N   ILE A   1      15.186  40.246  -8.978  0.00  0.00    -0.238 NA
ATOM      7  H   ILE A   1      14.414  40.203  -8.282  0.00  0.00    +0.142 HD
ENDBRANCH   5   6
BRANCH   5   8
ATOM      8  CB  ILE A   1      16.525  41.053  -7.048  0.00  0.00    +0.025 C 
ATOM      9  CG2 ILE A   1      17.966  41.304  -6.601  0.00  0.00    +0.002 C 
BRANCH   8  10
ATOM     10  CG1 ILE A   1      15.686  42.270  -6.741  0.00  0.00    +0.002 C 
ATOM     11  CD1 ILE A   1      15.604  42.598  -5.261  0.00  0.00    +0.000 C 
ENDBRANCH   8  10
ENDBRANCH   5   8
ENDBRANCH   1   5
BRANCH   2  12
ATOM     12  CA  CYS A   2      18.064  37.272  -8.852  0.00  0.00    +0.149 C 
BRANCH  12  13
ATOM     13  CB  CYS A   2      17.616  36.035  -8.114  0.00  0.00    +0.096 C 
ATOM     14  SG  CYS A   2      18.655  34.564  -8.309  0.00  0.00    -0.080 S 
ENDBRANCH  12  13
BRANCH  12  15
ATOM     15  C   CYS A   2      18.242  36.995 -10.345  0.00  0.00    +0.228 C 
ATOM     16  O   CYS A   2      19.393  36.852 -10.820  0.00  0.00    -0.286 OA
ENDBRANCH  12  15
ENDBRANCH   2  12
TORSDOF 7
REMARK  Name = ../refined-set-2016/4qsu/4qsu_pocket.pdb
REMARK  107 active torsions:
REMARK  status: ('A' for Active; 'I' for Inactive)
REMARK    1  A    between atoms: _1  and  _3
REMARK    2  A    between atoms: _3  and  _4
REMARK    3  A    between atoms: _3  and  _6
REMARK    4  A    between atoms: _6  and  _7
REMARK    5  A    between atoms: _7  and  _8
REMARK    6  A    between atoms: _8  and  _9
REMARK    7  A    between atoms: _18  and  _20
REMARK    8  A    between atoms: _20  and  _21
REMARK    9  A    between atoms: _20  and  _23
REMARK   10  A    between atoms: _26  and  _28
REMARK   11  A    between atoms: _28  and  _29
REMARK   12  A    between atoms: _28  and  _31
REMARK   13  A    between atoms: _31  and  _32
REMARK   14  A    between atoms: _38  and  _40
REMARK   15  A    between atoms: _40  and  _41
REMARK   16  A    between atoms: _40  and  _43
REMARK   17  A    between atoms: _43  and  _44
REMARK   18  A    between atoms: _47  and  _49
REMARK   19  A    between atoms: _49  and  _50
REMARK   20  A    between atoms: _49  and  _52
REMARK   21  A    between atoms: _52  and  _53
REMARK   22  A    between atoms: _53  and  _54
REMARK   23  A    between atoms: _54  and  _55
REMARK   24  A    between atoms: _55  and  _56
REMARK   25  A    between atoms: _61  and  _62
REMARK   26  A    between atoms: _67  and  _69
REMARK   27  A    between atoms: _69  and  _70
REMARK   28  A    between atoms: _69  and  _72
REMARK   29  A    between atoms: _75  and  _77
REMARK   30  A    between atoms: _77  and  _78
REMARK   31  A    between atoms: _77  and  _80
REMARK   32  A    between atoms: _80  and  _81
REMARK   33  A    between atoms: _84  and  _86
REMARK   34  A    between atoms: _86  and  _87
REMARK   35  A    between atoms: _86  and  _89
REMARK   36  A    between atoms: _89  and  _90
REMARK   37  A    between atoms: _90  and  _91
REMARK   38  A    between atoms: _94  and  _96
REMARK   39  A    between atoms: _96  and  _97
REMARK   40  A    between atoms: _96  and  _99
REMARK   41  A    between atoms: _102  and  _104
REMARK   42  A    between atoms: _104  and  _105
REMARK   43  A    between atoms: _104  and  _107
REMARK   44  A    between atoms: _107  and  _108
REMARK   45  A    between atoms: _113  and  _114
REMARK   46  A    between atoms: _116  and  _118
REMARK   47  A    between atoms: _118  and  _119
REMARK   48  A    between atoms: _118  and  _121
REMARK   49  A    between atoms: _121  and  _122
REMARK   50  A    between atoms: _125  and  _127
REMARK   51  A    between atoms: _127  and  _128
REMARK   52  A    between atoms: _127  and  _130
REMARK   53  A    between atoms: _130  and  _131
REMARK   54  A    between atoms: _131  and  _132
REMARK   55  A    between atoms: _134  and  _136
REMARK   56  A    between atoms: _136  and  _137
REMARK   57  A    between atoms: _136  and  _139
REMARK   58  A    between atoms: _139  and  _140
REMARK   59  A    between atoms: _143  and  _145
REMARK   60  A    between atoms: _145  and  _146
REMARK   61  A    between atoms: _145  and  _148
REMARK   62  A    between atoms: _148  and  _149
REMARK   63  A    between atoms: _152  and  _154
REMARK   64  A    between atoms: _154  and  _155
REMARK   65  A    between atoms: _154  and  _157
REMARK   66  A    between atoms: _159  and  _161
REMARK   67  A    between atoms: _161  and  _162
REMARK   68  A    between atoms: _161  and  _164
REMARK   69  A    between atoms: _164  and  _165
REMARK   70  A    between atoms: _170  and  _172
REMARK   71  A    between atoms: _172  and  _173
REMARK   72  A    between atoms: _176  and  _178
REMARK   73  A    between atoms: _178  and  _179
REMARK   74  A    between atoms: _178  and  _181
REMARK   75  A    between atoms: _181  and  _182
REMARK   76  A    between atoms: _185  and  _187
REMARK   77  A    between atoms: _187  and  _188
REMARK   78  A    between atoms: _187  and  _190
REMARK   79  A    between atoms: _190  and  _191
REMARK   80  A    between atoms: _191  and  _192
REMARK   81  A    between atoms: _195  and  _197
REMARK   82  A    between atoms: _197  and  _198
REMARK   83  A    between atoms: _197  and  _200
REMARK   84  A    between atoms: _200  and  _201
REMARK   85  A    between atoms: _206  and  _207
REMARK   86  A    between atoms: _209  and  _211
REMARK   87  A    between atoms: _211  and  _212
REMARK   88  A    between atoms: _211  and  _214
REMARK   89  A    between atoms: _214  and  _215
REMARK   90  A    between atoms: _220  and  _222
REMARK   91  A    between atoms: _222  and  _223
REMARK   92  A    between atoms: _225  and  _227
REMARK   93  A    between atoms: _227  and  _228
REMARK   94  A    between atoms: _227  and  _230
REMARK   95  A    between atoms: _230  and  _231
REMARK   96  A    between atoms: _234  and  _236
REMARK   97  A    between atoms: _236  and  _237
REMARK   98  A    between atoms: _236  and  _239
REMARK   99  A    between atoms: _239  and  _240
REMARK  100  A    between atoms: _243  and  _245
REMARK  101  A    between atoms: _245  and  _246
REMARK  102  A    between atoms: _245  and  _248
REMARK  103  A    between atoms: _248  and  _249
REMARK  104  A    between atoms: _249  and  _250
REMARK  105  A    between atoms: _250  and  _251
REMARK  106  A    between atoms: _260  and  _262
REMARK  107  A    between atoms: _262  and  _263
REMARK                            x       y       z     vdW  Elec       q    Type
REMARK                         _______ _______ _______ _____ _____    ______ ____
ROOT
ATOM      1  CA  GLU A   4      21.296  37.411 -16.945  0.00  0.00    +0.149 C 
ENDROOT
BRANCH   1   2
ATOM      2  C   GLU A   4      22.398  38.413 -17.242  0.00  0.00    +0.241 C 
ATOM      3  N   TYR A   5      22.541  39.432 -16.413  0.00  0.00    -0.297 N 
ATOM      4  H   TYR A   5      21.949  39.494 -15.560  0.00  0.00    +0.150 HD
ATOM      5  O   GLU A   4      23.109  38.297 -18.237  0.00  0.00    -0.273 OA
BRANCH   3   6
ATOM      6  CA  TYR A   5      23.518  40.460 -16.688  0.00  0.00    +0.153 C 
BRANCH   6   7
ATOM      7  C   TYR A   5      24.973  40.035 -16.447  0.00  0.00    +0.241 C 
ATOM      8  N   ASN A   6      25.219  39.050 -15.583  0.00  0.00    -0.298 N 
ATOM      9  H   ASN A   6      24.414  38.563 -15.139  0.00  0.00    +0.150 HD
ATOM     10  O   TYR A   5      25.842  40.610 -17.051  0.00  0.00    -0.273 OA
BRANCH   8  11
ATOM     11  CA  ASN A   6      26.568  38.628 -15.236  0.00  0.00    +0.146 C 
BRANCH  11  12
ATOM     12  C   ASN A   6      26.715  37.115 -15.470  0.00  0.00    +0.227 C 
ATOM     13  O   ASN A   6      26.778  36.345 -14.517  0.00  0.00    -0.286 OA
ENDBRANCH  11  12
BRANCH  11  14
ATOM     14  CB  ASN A   6      26.877  38.969 -13.753  0.00  0.00    +0.112 C 
BRANCH  14  15
ATOM     15  CG  ASN A   6      26.465  40.400 -13.361  0.00  0.00    +0.222 C 
ATOM     16  ND2 ASN A   6      25.259  40.534 -12.855  0.00  0.00    -0.329 N 
ATOM     17 HD21 ASN A   6      24.916  41.474 -12.570  0.00  0.00    +0.145 HD
ATOM     18 HD22 ASN A   6      24.648  39.700 -12.740  0.00  0.00    +0.145 HD
ATOM     19  OD1 ASN A   6      27.218  41.358 -13.514  0.00  0.00    -0.275 OA
ENDBRANCH  14  15
ENDBRANCH  11  14
ENDBRANCH   8  11
ENDBRANCH   6   7
BRANCH   6  20
ATOM     20  CB  TYR A   5      23.250  41.754 -15.910  0.00  0.00    +0.055 C 
BRANCH  20  21
ATOM     21  CG  TYR A   5      24.089  42.927 -16.359  0.00  0.00    -0.020 A 
ATOM     22  CD2 TYR A   5      25.192  43.347 -15.616  0.00  0.00    -0.001 A 
ATOM     23  CE2 TYR A   5      25.982  44.399 -16.026  0.00  0.00    +0.036 A 
ATOM     24  CZ  TYR A   5      25.678  45.061 -17.201  0.00  0.00    +0.134 A 
ATOM     25  CE1 TYR A   5      24.606  44.664 -17.981  0.00  0.00    +0.036 A 
ATOM     26  CD1 TYR A   5      23.817  43.595 -17.568  0.00  0.00    -0.001 A 
BRANCH  24  27
ATOM     27  OH  TYR A   5      26.468  46.107 -17.603  0.00  0.00    -0.506 OA
ATOM     28  HH  TYR A   5      26.122  46.472 -18.456  0.00  0.00    +0.292 HD
ENDBRANCH  24  27
ENDBRANCH  20  21
ENDBRANCH   6  20
ENDBRANCH   3   6
ENDBRANCH   1   2
BRANCH   1  30
ATOM     29  C   LEU A   3      22.256  36.173 -15.022  0.00  0.00    +0.241 C 
ATOM     30  N   GLU A   4      21.303  36.964 -15.522  0.00  0.00    -0.297 N 
ATOM     31  H   GLU A   4      20.536  37.281 -14.895  0.00  0.00    +0.150 HD
ATOM     32  O   LEU A   3      23.271  35.786 -15.663  0.00  0.00    -0.273 OA
BRANCH  29  33
ATOM     33  CA  LEU A   3      22.130  35.845 -13.544  0.00  0.00    +0.149 C 
BRANCH  33  35
ATOM     34  C   ALA A   2      22.415  38.109 -12.655  0.00  0.00    +0.241 C 
ATOM     35  N   LEU A   3      21.658  37.023 -12.796  0.00  0.00    -0.297 N 
ATOM     36  H   LEU A   3      20.710  37.006 -12.368  0.00  0.00    +0.150 HD
ATOM     37  O   ALA A   2      23.540  38.188 -13.091  0.00  0.00    -0.273 OA
BRANCH  34  38
ATOM     38  CA  ALA A   2      21.842  39.278 -11.878  0.00  0.00    +0.149 C 
ATOM     39  CB  ALA A   2      22.102  39.103 -10.358  0.00  0.00    +0.031 C 
BRANCH  38  41
ATOM     40  C   ASN A   1      20.008  39.796 -13.362  0.00  0.00    +0.239 C 
ATOM     41  N   ALA A   2      20.434  39.437 -12.151  0.00  0.00    -0.297 N 
ATOM     42  H   ALA A   2      19.742  39.269 -11.393  0.00  0.00    +0.150 HD
ATOM     43  O   ASN A   1      20.784  39.981 -14.274  0.00  0.00    -0.274 OA
BRANCH  40  44
ATOM     44  CA  ASN A   1      18.478  39.982 -13.562  0.00  0.00    +0.154 C 
BRANCH  44  45
ATOM     45  N   ASN A   1      17.768  38.902 -12.945  0.00  0.00    -0.238 NA
ATOM     46  H   ASN A   1      17.047  39.109 -12.224  0.00  0.00    +0.142 HD
ENDBRANCH  44  45
BRANCH  44  47
ATOM     47  CB  ASN A   1      18.033  41.359 -13.011  0.00  0.00    +0.111 C 
BRANCH  47  48
ATOM     48  CG  ASN A   1      16.658  41.763 -13.474  0.00  0.00    +0.221 C 
ATOM     49  ND2 ASN A   1      16.115  42.761 -12.832  0.00  0.00    -0.329 N 
ATOM     50 HD21 ASN A   1      16.605  43.184 -12.018  0.00  0.00    +0.145 HD
ATOM     51 HD22 ASN A   1      15.192  43.133 -13.134  0.00  0.00    +0.145 HD
ATOM     52  OD1 ASN A   1      16.118  41.217 -14.454  0.00  0.00    -0.275 OA
ENDBRANCH  47  48
ENDBRANCH  44  47
ENDBRANCH  40  44
ENDBRANCH  38  41
ENDBRANCH  34  38
ENDBRANCH  33  35
BRANCH  33  53
ATOM     53  CB  LEU A   3      21.219  34.657 -13.368  0.00  0.00    +0.029 C 
BRANCH  53  54
ATOM     54  CG  LEU A   3      20.918  34.151 -11.969  0.00  0.00    +0.002 C 
ATOM     55  CD2 LEU A   3      22.054  34.243 -10.970  0.00  0.00    +0.000 C 
ATOM     56  CD1 LEU A   3      20.410  32.718 -12.071  0.00  0.00    +0.000 C 
ENDBRANCH  53  54
ENDBRANCH  33  53
ENDBRANCH  29  33
ENDBRANCH   1  30
BRANCH   1  57
ATOM     57  CB  GLU A   4      19.940  38.037 -17.377  0.00  0.00    +0.041 C 
BRANCH  57  58
ATOM     58  CG  GLU A   4      19.970  38.670 -18.783  0.00  0.00    +0.116 C 
BRANCH  58  59
ATOM     59  CD  GLU A   4      18.677  39.381 -19.210  0.00  0.00    +0.365 C 
ATOM     60  OE2 GLU A   4      17.748  39.560 -18.385  0.00  0.00    -0.246 OA
ATOM     61  OE1 GLU A   4      18.620  39.792 -20.387  0.00  0.00    -0.246 OA
ENDBRANCH  58  59
ENDBRANCH  57  58
ENDBRANCH   1  57
TORSDOF 24
REMARK  Name = ../refined-set-2016/4qsu/4qsu_pocket.pdb
REMARK  107 active torsions:
REMARK  status: ('A' for Active; 'I' for Inactive)
REMARK    1  A    between atoms: _1  and  _3
REMARK    2  A    between atoms: _3  and  _4
REMARK    3  A    between atoms: _3  and  _6
REMARK    4  A    between atoms: _6  and  _7
REMARK    5  A    between atoms: _7  and  _8
REMARK    6  A    between atoms: _8  and  _9
REMARK    7  A    between atoms: _18  and  _20
REMARK    8  A    between atoms: _20  and  _21
REMARK    9  A    between atoms: _20  and  _23
REMARK   10  A    between atoms: _26  and  _28
REMARK   11  A    between atoms: _28  and  _29
REMARK   12  A    between atoms: _28  and  _31
REMARK   13  A    between atoms: _31  and  _32
REMARK   14  A    between atoms: _38  and  _40
REMARK   15  A    between atoms: _40  and  _41
REMARK   16  A    between atoms: _40  and  _43
REMARK   17  A    between atoms: _43  and  _44
REMARK   18  A    between atoms: _47  and  _49
REMARK   19  A    between atoms: _49  and  _50
REMARK   20  A    between atoms: _49  and  _52
REMARK   21  A    between atoms: _52  and  _53
REMARK   22  A    between atoms: _53  and  _54
REMARK   23  A    between atoms: _54  and  _55
REMARK   24  A    between atoms: _55  and  _56
REMARK   25  A    between atoms: _61  and  _62
REMARK   26  A    between atoms: _67  and  _69
REMARK   27  A    between atoms: _69  and  _70
REMARK   28  A    between atoms: _69  and  _72
REMARK   29  A    between atoms: _75  and  _77
REMARK   30  A    between atoms: _77  and  _78
REMARK   31  A    between atoms: _77  and  _80
REMARK   32  A    between atoms: _80  and  _81
REMARK   33  A    between atoms: _84  and  _86
REMARK   34  A    between atoms: _86  and  _87
REMARK   35  A    between atoms: _86  and  _89
REMARK   36  A    between atoms: _89  and  _90
REMARK   37  A    between atoms: _90  and  _91
REMARK   38  A    between atoms: _94  and  _96
REMARK   39  A    between atoms: _96  and  _97
REMARK   40  A    between atoms: _96  and  _99
REMARK   41  A    between atoms: _102  and  _104
REMARK   42  A    between atoms: _104  and  _105
REMARK   43  A    between atoms: _104  and  _107
REMARK   44  A    between atoms: _107  and  _108
REMARK   45  A    between atoms: _113  and  _114
REMARK   46  A    between atoms: _116  and  _118
REMARK   47  A    between atoms: _118  and  _119
REMARK   48  A    between atoms: _118  and  _121
REMARK   49  A    between atoms: _121  and  _122
REMARK   50  A    between atoms: _125  and  _127
REMARK   51  A    between atoms: _127  and  _128
REMARK   52  A    between atoms: _127  and  _130
REMARK   53  A    between atoms: _130  and  _131
REMARK   54  A    between atoms: _131  and  _132
REMARK   55  A    between atoms: _134  and  _136
REMARK   56  A    between atoms: _136  and  _137
REMARK   57  A    between atoms: _136  and  _139
REMARK   58  A    between atoms: _139  and  _140
REMARK   59  A    between atoms: _143  and  _145
REMARK   60  A    between atoms: _145  and  _146
REMARK   61  A    between atoms: _145  and  _148
REMARK   62  A    between atoms: _148  and  _149
REMARK   63  A    between atoms: _152  and  _154
REMARK   64  A    between atoms: _154  and  _155
REMARK   65  A    between atoms: _154  and  _157
REMARK   66  A    between atoms: _159  and  _161
REMARK   67  A    between atoms: _161  and  _162
REMARK   68  A    between atoms: _161  and  _164
REMARK   69  A    between atoms: _164  and  _165
REMARK   70  A    between atoms: _170  and  _172
REMARK   71  A    between atoms: _172  and  _173
REMARK   72  A    between atoms: _176  and  _178
REMARK   73  A    between atoms: _178  and  _179
REMARK   74  A    between atoms: _178  and  _181
REMARK   75  A    between atoms: _181  and  _182
REMARK   76  A    between atoms: _185  and  _187
REMARK   77  A    between atoms: _187  and  _188
REMARK   78  A    between atoms: _187  and  _190
REMARK   79  A    between atoms: _190  and  _191
REMARK   80  A    between atoms: _191  and  _192
REMARK   81  A    between atoms: _195  and  _197
REMARK   82  A    between atoms: _197  and  _198
REMARK   83  A    between atoms: _197  and  _200
REMARK   84  A    between atoms: _200  and  _201
REMARK   85  A    between atoms: _206  and  _207
REMARK   86  A    between atoms: _209  and  _211
REMARK   87  A    between atoms: _211  and  _212
REMARK   88  A    between atoms: _211  and  _214
REMARK   89  A    between atoms: _214  and  _215
REMARK   90  A    between atoms: _220  and  _222
REMARK   91  A    between atoms: _222  and  _223
REMARK   92  A    between atoms: _225  and  _227
REMARK   93  A    between atoms: _227  and  _228
REMARK   94  A    between atoms: _227  and  _230
REMARK   95  A    between atoms: _230  and  _231
REMARK   96  A    between atoms: _234  and  _236
REMARK   97  A    between atoms: _236  and  _237
REMARK   98  A    between atoms: _236  and  _239
REMARK   99  A    between atoms: _239  and  _240
REMARK  100  A    between atoms: _243  and  _245
REMARK  101  A    between atoms: _245  and  _246
REMARK  102  A    between atoms: _245  and  _248
REMARK  103  A    between atoms: _248  and  _249
REMARK  104  A    between atoms: _249  and  _250
REMARK  105  A    between atoms: _250  and  _251
REMARK  106  A    between atoms: _260  and  _262
REMARK  107  A    between atoms: _262  and  _263
REMARK                            x       y       z     vdW  Elec       q    Type
REMARK                         _______ _______ _______ _____ _____    ______ ____
ROOT
ATOM      1  C   GLY A   1      31.779  38.454 -10.749  0.00  0.00    +0.240 C 
ATOM      2  O   GLY A   1      30.888  38.630  -9.911  0.00  0.00    -0.274 OA
ATOM      3  N   ASP A   2      31.546  37.935 -11.947  0.00  0.00    -0.298 N 
ATOM      4  H   ASP A   2      32.324  37.903 -12.637  0.00  0.00    +0.150 HD
ENDROOT
BRANCH   1   5
ATOM      5  CA  GLY A   1      33.256  38.842 -10.475  0.00  0.00    +0.169 C 
BRANCH   5   6
ATOM      6  N   GLY A   1      34.214  37.783 -10.814  0.00  0.00    -0.236 NA
ATOM      7  H   GLY A   1      34.953  37.971 -11.521  0.00  0.00    +0.142 HD
ENDBRANCH   5   6
ENDBRANCH   1   5
BRANCH   3   8
ATOM      8  CA  ASP A   2      30.241  37.407 -12.336  0.00  0.00    +0.148 C 
BRANCH   8   9
ATOM      9  C   ASP A   2      29.843  36.238 -11.484  0.00  0.00    +0.227 C 
ATOM     10  O   ASP A   2      28.711  36.168 -10.979  0.00  0.00    -0.286 OA
ENDBRANCH   8   9
BRANCH   8  11
ATOM     11  CB  ASP A   2      30.245  36.964 -13.789  0.00  0.00    +0.142 C 
BRANCH  11  12
ATOM     12  CG  ASP A   2      30.193  38.116 -14.746  0.00  0.00    +0.367 C 
ATOM     13  OD2 ASP A   2      30.602  39.258 -14.401  0.00  0.00    -0.246 OA
ATOM     14  OD1 ASP A   2      29.720  37.877 -15.883  0.00  0.00    -0.246 OA
ENDBRANCH  11  12
ENDBRANCH   8  11
ENDBRANCH   3   8
TORSDOF 6
REMARK  Name = ../refined-set-2016/4qsu/4qsu_pocket.pdb
REMARK  107 active torsions:
REMARK  status: ('A' for Active; 'I' for Inactive)
REMARK    1  A    between atoms: _1  and  _3
REMARK    2  A    between atoms: _3  and  _4
REMARK    3  A    between atoms: _3  and  _6
REMARK    4  A    between atoms: _6  and  _7
REMARK    5  A    between atoms: _7  and  _8
REMARK    6  A    between atoms: _8  and  _9
REMARK    7  A    between atoms: _18  and  _20
REMARK    8  A    between atoms: _20  and  _21
REMARK    9  A    between atoms: _20  and  _23
REMARK   10  A    between atoms: _26  and  _28
REMARK   11  A    between atoms: _28  and  _29
REMARK   12  A    between atoms: _28  and  _31
REMARK   13  A    between atoms: _31  and  _32
REMARK   14  A    between atoms: _38  and  _40
REMARK   15  A    between atoms: _40  and  _41
REMARK   16  A    between atoms: _40  and  _43
REMARK   17  A    between atoms: _43  and  _44
REMARK   18  A    between atoms: _47  and  _49
REMARK   19  A    between atoms: _49  and  _50
REMARK   20  A    between atoms: _49  and  _52
REMARK   21  A    between atoms: _52  and  _53
REMARK   22  A    between atoms: _53  and  _54
REMARK   23  A    between atoms: _54  and  _55
REMARK   24  A    between atoms: _55  and  _56
REMARK   25  A    between atoms: _61  and  _62
REMARK   26  A    between atoms: _67  and  _69
REMARK   27  A    between atoms: _69  and  _70
REMARK   28  A    between atoms: _69  and  _72
REMARK   29  A    between atoms: _75  and  _77
REMARK   30  A    between atoms: _77  and  _78
REMARK   31  A    between atoms: _77  and  _80
REMARK   32  A    between atoms: _80  and  _81
REMARK   33  A    between atoms: _84  and  _86
REMARK   34  A    between atoms: _86  and  _87
REMARK   35  A    between atoms: _86  and  _89
REMARK   36  A    between atoms: _89  and  _90
REMARK   37  A    between atoms: _90  and  _91
REMARK   38  A    between atoms: _94  and  _96
REMARK   39  A    between atoms: _96  and  _97
REMARK   40  A    between atoms: _96  and  _99
REMARK   41  A    between atoms: _102  and  _104
REMARK   42  A    between atoms: _104  and  _105
REMARK   43  A    between atoms: _104  and  _107
REMARK   44  A    between atoms: _107  and  _108
REMARK   45  A    between atoms: _113  and  _114
REMARK   46  A    between atoms: _116  and  _118
REMARK   47  A    between atoms: _118  and  _119
REMARK   48  A    between atoms: _118  and  _121
REMARK   49  A    between atoms: _121  and  _122
REMARK   50  A    between atoms: _125  and  _127
REMARK   51  A    between atoms: _127  and  _128
REMARK   52  A    between atoms: _127  and  _130
REMARK   53  A    between atoms: _130  and  _131
REMARK   54  A    between atoms: _131  and  _132
REMARK   55  A    between atoms: _134  and  _136
REMARK   56  A    between atoms: _136  and  _137
REMARK   57  A    between atoms: _136  and  _139
REMARK   58  A    between atoms: _139  and  _140
REMARK   59  A    between atoms: _143  and  _145
REMARK   60  A    between atoms: _145  and  _146
REMARK   61  A    between atoms: _145  and  _148
REMARK   62  A    between atoms: _148  and  _149
REMARK   63  A    between atoms: _152  and  _154
REMARK   64  A    between atoms: _154  and  _155
REMARK   65  A    between atoms: _154  and  _157
REMARK   66  A    between atoms: _159  and  _161
REMARK   67  A    between atoms: _161  and  _162
REMARK   68  A    between atoms: _161  and  _164
REMARK   69  A    between atoms: _164  and  _165
REMARK   70  A    between atoms: _170  and  _172
REMARK   71  A    between atoms: _172  and  _173
REMARK   72  A    between atoms: _176  and  _178
REMARK   73  A    between atoms: _178  and  _179
REMARK   74  A    between atoms: _178  and  _181
REMARK   75  A    between atoms: _181  and  _182
REMARK   76  A    between atoms: _185  and  _187
REMARK   77  A    between atoms: _187  and  _188
REMARK   78  A    between atoms: _187  and  _190
REMARK   79  A    between atoms: _190  and  _191
REMARK   80  A    between atoms: _191  and  _192
REMARK   81  A    between atoms: _195  and  _197
REMARK   82  A    between atoms: _197  and  _198
REMARK   83  A    between atoms: _197  and  _200
REMARK   84  A    between atoms: _200  and  _201
REMARK   85  A    between atoms: _206  and  _207
REMARK   86  A    between atoms: _209  and  _211
REMARK   87  A    between atoms: _211  and  _212
REMARK   88  A    between atoms: _211  and  _214
REMARK   89  A    between atoms: _214  and  _215
REMARK   90  A    between atoms: _220  and  _222
REMARK   91  A    between atoms: _222  and  _223
REMARK   92  A    between atoms: _225  and  _227
REMARK   93  A    between atoms: _227  and  _228
REMARK   94  A    between atoms: _227  and  _230
REMARK   95  A    between atoms: _230  and  _231
REMARK   96  A    between atoms: _234  and  _236
REMARK   97  A    between atoms: _236  and  _237
REMARK   98  A    between atoms: _236  and  _239
REMARK   99  A    between atoms: _239  and  _240
REMARK  100  A    between atoms: _243  and  _245
REMARK  101  A    between atoms: _245  and  _246
REMARK  102  A    between atoms: _245  and  _248
REMARK  103  A    between atoms: _248  and  _249
REMARK  104  A    between atoms: _249  and  _250
REMARK  105  A    between atoms: _250  and  _251
REMARK  106  A    between atoms: _260  and  _262
REMARK  107  A    between atoms: _262  and  _263
REMARK                            x       y       z     vdW  Elec       q    Type
REMARK                         _______ _______ _______ _____ _____    ______ ____
ROOT
ATOM      1  CA  ARG A   2      25.493  35.150  -9.210  0.00  0.00    +0.137 C 
ENDROOT
BRANCH   1   4
ATOM      2  C   ILE A   1      26.308  37.221  -8.161  0.00  0.00    +0.238 C 
ATOM      3  O   ILE A   1      25.287  37.338  -7.466  0.00  0.00    -0.274 OA
ATOM      4  N   ARG A   2      26.497  36.220  -9.028  0.00  0.00    -0.298 N 
ATOM      5  H   ARG A   2      27.373  36.194  -9.588  0.00  0.00    +0.150 HD
BRANCH   2   6
ATOM      6  CA  ILE A   1      27.457  38.214  -7.928  0.00  0.00    +0.145 C 
BRANCH   6   7
ATOM      7  N   ILE A   1      28.738  37.553  -7.962  0.00  0.00    -0.238 NA
ATOM      8  H   ILE A   1      29.403  37.759  -8.735  0.00  0.00    +0.142 HD
ENDBRANCH   6   7
BRANCH   6   9
ATOM      9  CB  ILE A   1      27.343  39.462  -8.837  0.00  0.00    +0.025 C 
ATOM     10  CG2 ILE A   1      27.312  39.099 -10.316  0.00  0.00    +0.002 C 
BRANCH   9  11
ATOM     11  CG1 ILE A   1      26.056  40.225  -8.484  0.00  0.00    +0.002 C 
ATOM     12  CD1 ILE A   1      26.023  41.661  -9.010  0.00  0.00    +0.000 C 
ENDBRANCH   9  11
ENDBRANCH   6   9
ENDBRANCH   2   6
ENDBRANCH   1   4
BRANCH   1  13
ATOM     13  C   ARG A   2      25.282  34.352  -7.921  0.00  0.00    +0.227 C 
ATOM     14  O   ARG A   2      24.152  34.021  -7.569  0.00  0.00    -0.286 OA
ENDBRANCH   1  13
BRANCH   1  15
ATOM     15  CB  ARG A   2      25.826  34.211 -10.365  0.00  0.00    +0.031 C 
BRANCH  15  16
ATOM     16  CG  ARG A   2      25.808  34.889 -11.725  0.00  0.00    +0.045 C 
BRANCH  16  17
ATOM     17  CD  ARG A   2      25.560  33.865 -12.832  0.00  0.00    +0.174 C 
BRANCH  17  18
ATOM     18  NE  ARG A   2      26.544  32.792 -12.891  0.00  0.00    -0.265 N 
ATOM     19  HE  ARG A   2      26.283  31.884 -12.457  0.00  0.00    +0.259 HD
ATOM     20  CZ  ARG A   2      27.754  32.873 -13.455  0.00  0.00    +0.342 C 
ATOM     21  NH2 ARG A   2      28.534  31.810 -13.459  0.00  0.00    -0.292 N 
ATOM     22 HH21 ARG A   2      28.206  30.923 -13.027  0.00  0.00    +0.255 HD
ATOM     23 HH22 ARG A   2      29.477  31.859 -13.894  0.00  0.00    +0.255 HD
ATOM     24  NH1 ARG A   2      28.191  33.984 -14.030  0.00  0.00    -0.292 N 
ATOM     25 HH11 ARG A   2      27.587  34.830 -14.053  0.00  0.00    +0.255 HD
ATOM     26 HH12 ARG A   2      29.138  34.010 -14.459  0.00  0.00    +0.255 HD
ENDBRANCH  17  18
ENDBRANCH  16  17
ENDBRANCH  15  16
ENDBRANCH   1  15
TORSDOF 10
REMARK  Name = ../refined-set-2016/4qsu/4qsu_pocket.pdb
REMARK  107 active torsions:
REMARK  status: ('A' for Active; 'I' for Inactive)
REMARK    1  A    between atoms: _1  and  _3
REMARK    2  A    between atoms: _3  and  _4
REMARK    3  A    between atoms: _3  and  _6
REMARK    4  A    between atoms: _6  and  _7
REMARK    5  A    between atoms: _7  and  _8
REMARK    6  A    between atoms: _8  and  _9
REMARK    7  A    between atoms: _18  and  _20
REMARK    8  A    between atoms: _20  and  _21
REMARK    9  A    between atoms: _20  and  _23
REMARK   10  A    between atoms: _26  and  _28
REMARK   11  A    between atoms: _28  and  _29
REMARK   12  A    between atoms: _28  and  _31
REMARK   13  A    between atoms: _31  and  _32
REMARK   14  A    between atoms: _38  and  _40
REMARK   15  A    between atoms: _40  and  _41
REMARK   16  A    between atoms: _40  and  _43
REMARK   17  A    between atoms: _43  and  _44
REMARK   18  A    between atoms: _47  and  _49
REMARK   19  A    between atoms: _49  and  _50
REMARK   20  A    between atoms: _49  and  _52
REMARK   21  A    between atoms: _52  and  _53
REMARK   22  A    between atoms: _53  and  _54
REMARK   23  A    between atoms: _54  and  _55
REMARK   24  A    between atoms: _55  and  _56
REMARK   25  A    between atoms: _61  and  _62
REMARK   26  A    between atoms: _67  and  _69
REMARK   27  A    between atoms: _69  and  _70
REMARK   28  A    between atoms: _69  and  _72
REMARK   29  A    between atoms: _75  and  _77
REMARK   30  A    between atoms: _77  and  _78
REMARK   31  A    between atoms: _77  and  _80
REMARK   32  A    between atoms: _80  and  _81
REMARK   33  A    between atoms: _84  and  _86
REMARK   34  A    between atoms: _86  and  _87
REMARK   35  A    between atoms: _86  and  _89
REMARK   36  A    between atoms: _89  and  _90
REMARK   37  A    between atoms: _90  and  _91
REMARK   38  A    between atoms: _94  and  _96
REMARK   39  A    between atoms: _96  and  _97
REMARK   40  A    between atoms: _96  and  _99
REMARK   41  A    between atoms: _102  and  _104
REMARK   42  A    between atoms: _104  and  _105
REMARK   43  A    between atoms: _104  and  _107
REMARK   44  A    between atoms: _107  and  _108
REMARK   45  A    between atoms: _113  and  _114
REMARK   46  A    between atoms: _116  and  _118
REMARK   47  A    between atoms: _118  and  _119
REMARK   48  A    between atoms: _118  and  _121
REMARK   49  A    between atoms: _121  and  _122
REMARK   50  A    between atoms: _125  and  _127
REMARK   51  A    between atoms: _127  and  _128
REMARK   52  A    between atoms: _127  and  _130
REMARK   53  A    between atoms: _130  and  _131
REMARK   54  A    between atoms: _131  and  _132
REMARK   55  A    between atoms: _134  and  _136
REMARK   56  A    between atoms: _136  and  _137
REMARK   57  A    between atoms: _136  and  _139
REMARK   58  A    between atoms: _139  and  _140
REMARK   59  A    between atoms: _143  and  _145
REMARK   60  A    between atoms: _145  and  _146
REMARK   61  A    between atoms: _145  and  _148
REMARK   62  A    between atoms: _148  and  _149
REMARK   63  A    between atoms: _152  and  _154
REMARK   64  A    between atoms: _154  and  _155
REMARK   65  A    between atoms: _154  and  _157
REMARK   66  A    between atoms: _159  and  _161
REMARK   67  A    between atoms: _161  and  _162
REMARK   68  A    between atoms: _161  and  _164
REMARK   69  A    between atoms: _164  and  _165
REMARK   70  A    between atoms: _170  and  _172
REMARK   71  A    between atoms: _172  and  _173
REMARK   72  A    between atoms: _176  and  _178
REMARK   73  A    between atoms: _178  and  _179
REMARK   74  A    between atoms: _178  and  _181
REMARK   75  A    between atoms: _181  and  _182
REMARK   76  A    between atoms: _185  and  _187
REMARK   77  A    between atoms: _187  and  _188
REMARK   78  A    between atoms: _187  and  _190
REMARK   79  A    between atoms: _190  and  _191
REMARK   80  A    between atoms: _191  and  _192
REMARK   81  A    between atoms: _195  and  _197
REMARK   82  A    between atoms: _197  and  _198
REMARK   83  A    between atoms: _197  and  _200
REMARK   84  A    between atoms: _200  and  _201
REMARK   85  A    between atoms: _206  and  _207
REMARK   86  A    between atoms: _209  and  _211
REMARK   87  A    between atoms: _211  and  _212
REMARK   88  A    between atoms: _211  and  _214
REMARK   89  A    between atoms: _214  and  _215
REMARK   90  A    between atoms: _220  and  _222
REMARK   91  A    between atoms: _222  and  _223
REMARK   92  A    between atoms: _225  and  _227
REMARK   93  A    between atoms: _227  and  _228
REMARK   94  A    between atoms: _227  and  _230
REMARK   95  A    between atoms: _230  and  _231
REMARK   96  A    between atoms: _234  and  _236
REMARK   97  A    between atoms: _236  and  _237
REMARK   98  A    between atoms: _236  and  _239
REMARK   99  A    between atoms: _239  and  _240
REMARK  100  A    between atoms: _243  and  _245
REMARK  101  A    between atoms: _245  and  _246
REMARK  102  A    between atoms: _245  and  _248
REMARK  103  A    between atoms: _248  and  _249
REMARK  104  A    between atoms: _249  and  _250
REMARK  105  A    between atoms: _250  and  _251
REMARK  106  A    between atoms: _260  and  _262
REMARK  107  A    between atoms: _262  and  _263
REMARK                            x       y       z     vdW  Elec       q    Type
REMARK                         _______ _______ _______ _____ _____    ______ ____
ROOT
ATOM      1  CA  ALA A   1      21.952  36.591  -6.064  0.00  0.00    +0.133 C 
ATOM      2  CB  ALA A   1      21.948  36.856  -7.570  0.00  0.00    +0.027 C 
ENDROOT
BRANCH   1   3
ATOM      3  N   ALA A   1      23.319  36.475  -5.593  0.00  0.00    -0.239 NA
ATOM      4  H   ALA A   1      24.088  36.443  -6.293  0.00  0.00    +0.142 HD
ENDBRANCH   1   3
BRANCH   1   5
ATOM      5  C   ALA A   1      21.165  35.340  -5.691  0.00  0.00    +0.224 C 
ATOM      6  O   ALA A   1      20.026  35.445  -5.168  0.00  0.00    -0.287 OA
ENDBRANCH   1   5
TORSDOF 2
REMARK  Name = ../refined-set-2016/4qsu/4qsu_pocket.pdb
REMARK  107 active torsions:
REMARK  status: ('A' for Active; 'I' for Inactive)
REMARK    1  A    between atoms: _1  and  _3
REMARK    2  A    between atoms: _3  and  _4
REMARK    3  A    between atoms: _3  and  _6
REMARK    4  A    between atoms: _6  and  _7
REMARK    5  A    between atoms: _7  and  _8
REMARK    6  A    between atoms: _8  and  _9
REMARK    7  A    between atoms: _18  and  _20
REMARK    8  A    between atoms: _20  and  _21
REMARK    9  A    between atoms: _20  and  _23
REMARK   10  A    between atoms: _26  and  _28
REMARK   11  A    between atoms: _28  and  _29
REMARK   12  A    between atoms: _28  and  _31
REMARK   13  A    between atoms: _31  and  _32
REMARK   14  A    between atoms: _38  and  _40
REMARK   15  A    between atoms: _40  and  _41
REMARK   16  A    between atoms: _40  and  _43
REMARK   17  A    between atoms: _43  and  _44
REMARK   18  A    between atoms: _47  and  _49
REMARK   19  A    between atoms: _49  and  _50
REMARK   20  A    between atoms: _49  and  _52
REMARK   21  A    between atoms: _52  and  _53
REMARK   22  A    between atoms: _53  and  _54
REMARK   23  A    between atoms: _54  and  _55
REMARK   24  A    between atoms: _55  and  _56
REMARK   25  A    between atoms: _61  and  _62
REMARK   26  A    between atoms: _67  and  _69
REMARK   27  A    between atoms: _69  and  _70
REMARK   28  A    between atoms: _69  and  _72
REMARK   29  A    between atoms: _75  and  _77
REMARK   30  A    between atoms: _77  and  _78
REMARK   31  A    between atoms: _77  and  _80
REMARK   32  A    between atoms: _80  and  _81
REMARK   33  A    between atoms: _84  and  _86
REMARK   34  A    between atoms: _86  and  _87
REMARK   35  A    between atoms: _86  and  _89
REMARK   36  A    between atoms: _89  and  _90
REMARK   37  A    between atoms: _90  and  _91
REMARK   38  A    between atoms: _94  and  _96
REMARK   39  A    between atoms: _96  and  _97
REMARK   40  A    between atoms: _96  and  _99
REMARK   41  A    between atoms: _102  and  _104
REMARK   42  A    between atoms: _104  and  _105
REMARK   43  A    between atoms: _104  and  _107
REMARK   44  A    between atoms: _107  and  _108
REMARK   45  A    between atoms: _113  and  _114
REMARK   46  A    between atoms: _116  and  _118
REMARK   47  A    between atoms: _118  and  _119
REMARK   48  A    between atoms: _118  and  _121
REMARK   49  A    between atoms: _121  and  _122
REMARK   50  A    between atoms: _125  and  _127
REMARK   51  A    between atoms: _127  and  _128
REMARK   52  A    between atoms: _127  and  _130
REMARK   53  A    between atoms: _130  and  _131
REMARK   54  A    between atoms: _131  and  _132
REMARK   55  A    between atoms: _134  and  _136
REMARK   56  A    between atoms: _136  and  _137
REMARK   57  A    between atoms: _136  and  _139
REMARK   58  A    between atoms: _139  and  _140
REMARK   59  A    between atoms: _143  and  _145
REMARK   60  A    between atoms: _145  and  _146
REMARK   61  A    between atoms: _145  and  _148
REMARK   62  A    between atoms: _148  and  _149
REMARK   63  A    between atoms: _152  and  _154
REMARK   64  A    between atoms: _154  and  _155
REMARK   65  A    between atoms: _154  and  _157
REMARK   66  A    between atoms: _159  and  _161
REMARK   67  A    between atoms: _161  and  _162
REMARK   68  A    between atoms: _161  and  _164
REMARK   69  A    between atoms: _164  and  _165
REMARK   70  A    between atoms: _170  and  _172
REMARK   71  A    between atoms: _172  and  _173
REMARK   72  A    between atoms: _176  and  _178
REMARK   73  A    between atoms: _178  and  _179
REMARK   74  A    between atoms: _178  and  _181
REMARK   75  A    between atoms: _181  and  _182
REMARK   76  A    between atoms: _185  and  _187
REMARK   77  A    between atoms: _187  and  _188
REMARK   78  A    between atoms: _187  and  _190
REMARK   79  A    between atoms: _190  and  _191
REMARK   80  A    between atoms: _191  and  _192
REMARK   81  A    between atoms: _195  and  _197
REMARK   82  A    between atoms: _197  and  _198
REMARK   83  A    between atoms: _197  and  _200
REMARK   84  A    between atoms: _200  and  _201
REMARK   85  A    between atoms: _206  and  _207
REMARK   86  A    between atoms: _209  and  _211
REMARK   87  A    between atoms: _211  and  _212
REMARK   88  A    between atoms: _211  and  _214
REMARK   89  A    between atoms: _214  and  _215
REMARK   90  A    between atoms: _220  and  _222
REMARK   91  A    between atoms: _222  and  _223
REMARK   92  A    between atoms: _225  and  _227
REMARK   93  A    between atoms: _227  and  _228
REMARK   94  A    between atoms: _227  and  _230
REMARK   95  A    between atoms: _230  and  _231
REMARK   96  A    between atoms: _234  and  _236
REMARK   97  A    between atoms: _236  and  _237
REMARK   98  A    between atoms: _236  and  _239
REMARK   99  A    between atoms: _239  and  _240
REMARK  100  A    between atoms: _243  and  _245
REMARK  101  A    between atoms: _245  and  _246
REMARK  102  A    between atoms: _245  and  _248
REMARK  103  A    between atoms: _248  and  _249
REMARK  104  A    between atoms: _249  and  _250
REMARK  105  A    between atoms: _250  and  _251
REMARK  106  A    between atoms: _260  and  _262
REMARK  107  A    between atoms: _262  and  _263
REMARK                            x       y       z     vdW  Elec       q    Type
REMARK                         _______ _______ _______ _____ _____    ______ ____
ROOT
ATOM      1  O   HOH     1      19.600  44.512  -8.128  0.00  0.00    +0.000 OA
ENDROOT
TORSDOF 0
REMARK  Name = ../refined-set-2016/4qsu/4qsu_pocket.pdb
REMARK  107 active torsions:
REMARK  status: ('A' for Active; 'I' for Inactive)
REMARK    1  A    between atoms: _1  and  _3
REMARK    2  A    between atoms: _3  and  _4
REMARK    3  A    between atoms: _3  and  _6
REMARK    4  A    between atoms: _6  and  _7
REMARK    5  A    between atoms: _7  and  _8
REMARK    6  A    between atoms: _8  and  _9
REMARK    7  A    between atoms: _18  and  _20
REMARK    8  A    between atoms: _20  and  _21
REMARK    9  A    between atoms: _20  and  _23
REMARK   10  A    between atoms: _26  and  _28
REMARK   11  A    between atoms: _28  and  _29
REMARK   12  A    between atoms: _28  and  _31
REMARK   13  A    between atoms: _31  and  _32
REMARK   14  A    between atoms: _38  and  _40
REMARK   15  A    between atoms: _40  and  _41
REMARK   16  A    between atoms: _40  and  _43
REMARK   17  A    between atoms: _43  and  _44
REMARK   18  A    between atoms: _47  and  _49
REMARK   19  A    between atoms: _49  and  _50
REMARK   20  A    between atoms: _49  and  _52
REMARK   21  A    between atoms: _52  and  _53
REMARK   22  A    between atoms: _53  and  _54
REMARK   23  A    between atoms: _54  and  _55
REMARK   24  A    between atoms: _55  and  _56
REMARK   25  A    between atoms: _61  and  _62
REMARK   26  A    between atoms: _67  and  _69
REMARK   27  A    between atoms: _69  and  _70
REMARK   28  A    between atoms: _69  and  _72
REMARK   29  A    between atoms: _75  and  _77
REMARK   30  A    between atoms: _77  and  _78
REMARK   31  A    between atoms: _77  and  _80
REMARK   32  A    between atoms: _80  and  _81
REMARK   33  A    between atoms: _84  and  _86
REMARK   34  A    between atoms: _86  and  _87
REMARK   35  A    between atoms: _86  and  _89
REMARK   36  A    between atoms: _89  and  _90
REMARK   37  A    between atoms: _90  and  _91
REMARK   38  A    between atoms: _94  and  _96
REMARK   39  A    between atoms: _96  and  _97
REMARK   40  A    between atoms: _96  and  _99
REMARK   41  A    between atoms: _102  and  _104
REMARK   42  A    between atoms: _104  and  _105
REMARK   43  A    between atoms: _104  and  _107
REMARK   44  A    between atoms: _107  and  _108
REMARK   45  A    between atoms: _113  and  _114
REMARK   46  A    between atoms: _116  and  _118
REMARK   47  A    between atoms: _118  and  _119
REMARK   48  A    between atoms: _118  and  _121
REMARK   49  A    between atoms: _121  and  _122
REMARK   50  A    between atoms: _125  and  _127
REMARK   51  A    between atoms: _127  and  _128
REMARK   52  A    between atoms: _127  and  _130
REMARK   53  A    between atoms: _130  and  _131
REMARK   54  A    between atoms: _131  and  _132
REMARK   55  A    between atoms: _134  and  _136
REMARK   56  A    between atoms: _136  and  _137
REMARK   57  A    between atoms: _136  and  _139
REMARK   58  A    between atoms: _139  and  _140
REMARK   59  A    between atoms: _143  and  _145
REMARK   60  A    between atoms: _145  and  _146
REMARK   61  A    between atoms: _145  and  _148
REMARK   62  A    between atoms: _148  and  _149
REMARK   63  A    between atoms: _152  and  _154
REMARK   64  A    between atoms: _154  and  _155
REMARK   65  A    between atoms: _154  and  _157
REMARK   66  A    between atoms: _159  and  _161
REMARK   67  A    between atoms: _161  and  _162
REMARK   68  A    between atoms: _161  and  _164
REMARK   69  A    between atoms: _164  and  _165
REMARK   70  A    between atoms: _170  and  _172
REMARK   71  A    between atoms: _172  and  _173
REMARK   72  A    between atoms: _176  and  _178
REMARK   73  A    between atoms: _178  and  _179
REMARK   74  A    between atoms: _178  and  _181
REMARK   75  A    between atoms: _181  and  _182
REMARK   76  A    between atoms: _185  and  _187
REMARK   77  A    between atoms: _187  and  _188
REMARK   78  A    between atoms: _187  and  _190
REMARK   79  A    between atoms: _190  and  _191
REMARK   80  A    between atoms: _191  and  _192
REMARK   81  A    between atoms: _195  and  _197
REMARK   82  A    between atoms: _197  and  _198
REMARK   83  A    between atoms: _197  and  _200
REMARK   84  A    between atoms: _200  and  _201
REMARK   85  A    between atoms: _206  and  _207
REMARK   86  A    between atoms: _209  and  _211
REMARK   87  A    between atoms: _211  and  _212
REMARK   88  A    between atoms: _211  and  _214
REMARK   89  A    between atoms: _214  and  _215
REMARK   90  A    between atoms: _220  and  _222
REMARK   91  A    between atoms: _222  and  _223
REMARK   92  A    between atoms: _225  and  _227
REMARK   93  A    between atoms: _227  and  _228
REMARK   94  A    between atoms: _227  and  _230
REMARK   95  A    between atoms: _230  and  _231
REMARK   96  A    between atoms: _234  and  _236
REMARK   97  A    between atoms: _236  and  _237
REMARK   98  A    between atoms: _236  and  _239
REMARK   99  A    between atoms: _239  and  _240
REMARK  100  A    between atoms: _243  and  _245
REMARK  101  A    between atoms: _245  and  _246
REMARK  102  A    between atoms: _245  and  _248
REMARK  103  A    between atoms: _248  and  _249
REMARK  104  A    between atoms: _249  and  _250
REMARK  105  A    between atoms: _250  and  _251
REMARK  106  A    between atoms: _260  and  _262
REMARK  107  A    between atoms: _262  and  _263
REMARK                            x       y       z     vdW  Elec       q    Type
REMARK                         _______ _______ _______ _____ _____    ______ ____
ROOT
ATOM      1  O   HOH     1      16.395  48.756  -9.691  0.00  0.00    +0.000 OA
ENDROOT
TORSDOF 0
REMARK  Name = ../refined-set-2016/4qsu/4qsu_pocket.pdb
REMARK  107 active torsions:
REMARK  status: ('A' for Active; 'I' for Inactive)
REMARK    1  A    between atoms: _1  and  _3
REMARK    2  A    between atoms: _3  and  _4
REMARK    3  A    between atoms: _3  and  _6
REMARK    4  A    between atoms: _6  and  _7
REMARK    5  A    between atoms: _7  and  _8
REMARK    6  A    between atoms: _8  and  _9
REMARK    7  A    between atoms: _18  and  _20
REMARK    8  A    between atoms: _20  and  _21
REMARK    9  A    between atoms: _20  and  _23
REMARK   10  A    between atoms: _26  and  _28
REMARK   11  A    between atoms: _28  and  _29
REMARK   12  A    between atoms: _28  and  _31
REMARK   13  A    between atoms: _31  and  _32
REMARK   14  A    between atoms: _38  and  _40
REMARK   15  A    between atoms: _40  and  _41
REMARK   16  A    between atoms: _40  and  _43
REMARK   17  A    between atoms: _43  and  _44
REMARK   18  A    between atoms: _47  and  _49
REMARK   19  A    between atoms: _49  and  _50
REMARK   20  A    between atoms: _49  and  _52
REMARK   21  A    between atoms: _52  and  _53
REMARK   22  A    between atoms: _53  and  _54
REMARK   23  A    between atoms: _54  and  _55
REMARK   24  A    between atoms: _55  and  _56
REMARK   25  A    between atoms: _61  and  _62
REMARK   26  A    between atoms: _67  and  _69
REMARK   27  A    between atoms: _69  and  _70
REMARK   28  A    between atoms: _69  and  _72
REMARK   29  A    between atoms: _75  and  _77
REMARK   30  A    between atoms: _77  and  _78
REMARK   31  A    between atoms: _77  and  _80
REMARK   32  A    between atoms: _80  and  _81
REMARK   33  A    between atoms: _84  and  _86
REMARK   34  A    between atoms: _86  and  _87
REMARK   35  A    between atoms: _86  and  _89
REMARK   36  A    between atoms: _89  and  _90
REMARK   37  A    between atoms: _90  and  _91
REMARK   38  A    between atoms: _94  and  _96
REMARK   39  A    between atoms: _96  and  _97
REMARK   40  A    between atoms: _96  and  _99
REMARK   41  A    between atoms: _102  and  _104
REMARK   42  A    between atoms: _104  and  _105
REMARK   43  A    between atoms: _104  and  _107
REMARK   44  A    between atoms: _107  and  _108
REMARK   45  A    between atoms: _113  and  _114
REMARK   46  A    between atoms: _116  and  _118
REMARK   47  A    between atoms: _118  and  _119
REMARK   48  A    between atoms: _118  and  _121
REMARK   49  A    between atoms: _121  and  _122
REMARK   50  A    between atoms: _125  and  _127
REMARK   51  A    between atoms: _127  and  _128
REMARK   52  A    between atoms: _127  and  _130
REMARK   53  A    between atoms: _130  and  _131
REMARK   54  A    between atoms: _131  and  _132
REMARK   55  A    between atoms: _134  and  _136
REMARK   56  A    between atoms: _136  and  _137
REMARK   57  A    between atoms: _136  and  _139
REMARK   58  A    between atoms: _139  and  _140
REMARK   59  A    between atoms: _143  and  _145
REMARK   60  A    between atoms: _145  and  _146
REMARK   61  A    between atoms: _145  and  _148
REMARK   62  A    between atoms: _148  and  _149
REMARK   63  A    between atoms: _152  and  _154
REMARK   64  A    between atoms: _154  and  _155
REMARK   65  A    between atoms: _154  and  _157
REMARK   66  A    between atoms: _159  and  _161
REMARK   67  A    between atoms: _161  and  _162
REMARK   68  A    between atoms: _161  and  _164
REMARK   69  A    between atoms: _164  and  _165
REMARK   70  A    between atoms: _170  and  _172
REMARK   71  A    between atoms: _172  and  _173
REMARK   72  A    between atoms: _176  and  _178
REMARK   73  A    between atoms: _178  and  _179
REMARK   74  A    between atoms: _178  and  _181
REMARK   75  A    between atoms: _181  and  _182
REMARK   76  A    between atoms: _185  and  _187
REMARK   77  A    between atoms: _187  and  _188
REMARK   78  A    between atoms: _187  and  _190
REMARK   79  A    between atoms: _190  and  _191
REMARK   80  A    between atoms: _191  and  _192
REMARK   81  A    between atoms: _195  and  _197
REMARK   82  A    between atoms: _197  and  _198
REMARK   83  A    between atoms: _197  and  _200
REMARK   84  A    between atoms: _200  and  _201
REMARK   85  A    between atoms: _206  and  _207
REMARK   86  A    between atoms: _209  and  _211
REMARK   87  A    between atoms: _211  and  _212
REMARK   88  A    between atoms: _211  and  _214
REMARK   89  A    between atoms: _214  and  _215
REMARK   90  A    between atoms: _220  and  _222
REMARK   91  A    between atoms: _222  and  _223
REMARK   92  A    between atoms: _225  and  _227
REMARK   93  A    between atoms: _227  and  _228
REMARK   94  A    between atoms: _227  and  _230
REMARK   95  A    between atoms: _230  and  _231
REMARK   96  A    between atoms: _234  and  _236
REMARK   97  A    between atoms: _236  and  _237
REMARK   98  A    between atoms: _236  and  _239
REMARK   99  A    between atoms: _239  and  _240
REMARK  100  A    between atoms: _243  and  _245
REMARK  101  A    between atoms: _245  and  _246
REMARK  102  A    between atoms: _245  and  _248
REMARK  103  A    between atoms: _248  and  _249
REMARK  104  A    between atoms: _249  and  _250
REMARK  105  A    between atoms: _250  and  _251
REMARK  106  A    between atoms: _260  and  _262
REMARK  107  A    between atoms: _262  and  _263
REMARK                            x       y       z     vdW  Elec       q    Type
REMARK                         _______ _______ _______ _____ _____    ______ ____
ROOT
ATOM      1  O   HOH     1      18.004  44.780 -11.239  0.00  0.00    +0.000 OA
ENDROOT
TORSDOF 0
REMARK  Name = ../refined-set-2016/4qsu/4qsu_pocket.pdb
REMARK  107 active torsions:
REMARK  status: ('A' for Active; 'I' for Inactive)
REMARK    1  A    between atoms: _1  and  _3
REMARK    2  A    between atoms: _3  and  _4
REMARK    3  A    between atoms: _3  and  _6
REMARK    4  A    between atoms: _6  and  _7
REMARK    5  A    between atoms: _7  and  _8
REMARK    6  A    between atoms: _8  and  _9
REMARK    7  A    between atoms: _18  and  _20
REMARK    8  A    between atoms: _20  and  _21
REMARK    9  A    between atoms: _20  and  _23
REMARK   10  A    between atoms: _26  and  _28
REMARK   11  A    between atoms: _28  and  _29
REMARK   12  A    between atoms: _28  and  _31
REMARK   13  A    between atoms: _31  and  _32
REMARK   14  A    between atoms: _38  and  _40
REMARK   15  A    between atoms: _40  and  _41
REMARK   16  A    between atoms: _40  and  _43
REMARK   17  A    between atoms: _43  and  _44
REMARK   18  A    between atoms: _47  and  _49
REMARK   19  A    between atoms: _49  and  _50
REMARK   20  A    between atoms: _49  and  _52
REMARK   21  A    between atoms: _52  and  _53
REMARK   22  A    between atoms: _53  and  _54
REMARK   23  A    between atoms: _54  and  _55
REMARK   24  A    between atoms: _55  and  _56
REMARK   25  A    between atoms: _61  and  _62
REMARK   26  A    between atoms: _67  and  _69
REMARK   27  A    between atoms: _69  and  _70
REMARK   28  A    between atoms: _69  and  _72
REMARK   29  A    between atoms: _75  and  _77
REMARK   30  A    between atoms: _77  and  _78
REMARK   31  A    between atoms: _77  and  _80
REMARK   32  A    between atoms: _80  and  _81
REMARK   33  A    between atoms: _84  and  _86
REMARK   34  A    between atoms: _86  and  _87
REMARK   35  A    between atoms: _86  and  _89
REMARK   36  A    between atoms: _89  and  _90
REMARK   37  A    between atoms: _90  and  _91
REMARK   38  A    between atoms: _94  and  _96
REMARK   39  A    between atoms: _96  and  _97
REMARK   40  A    between atoms: _96  and  _99
REMARK   41  A    between atoms: _102  and  _104
REMARK   42  A    between atoms: _104  and  _105
REMARK   43  A    between atoms: _104  and  _107
REMARK   44  A    between atoms: _107  and  _108
REMARK   45  A    between atoms: _113  and  _114
REMARK   46  A    between atoms: _116  and  _118
REMARK   47  A    between atoms: _118  and  _119
REMARK   48  A    between atoms: _118  and  _121
REMARK   49  A    between atoms: _121  and  _122
REMARK   50  A    between atoms: _125  and  _127
REMARK   51  A    between atoms: _127  and  _128
REMARK   52  A    between atoms: _127  and  _130
REMARK   53  A    between atoms: _130  and  _131
REMARK   54  A    between atoms: _131  and  _132
REMARK   55  A    between atoms: _134  and  _136
REMARK   56  A    between atoms: _136  and  _137
REMARK   57  A    between atoms: _136  and  _139
REMARK   58  A    between atoms: _139  and  _140
REMARK   59  A    between atoms: _143  and  _145
REMARK   60  A    between atoms: _145  and  _146
REMARK   61  A    between atoms: _145  and  _148
REMARK   62  A    between atoms: _148  and  _149
REMARK   63  A    between atoms: _152  and  _154
REMARK   64  A    between atoms: _154  and  _155
REMARK   65  A    between atoms: _154  and  _157
REMARK   66  A    between atoms: _159  and  _161
REMARK   67  A    between atoms: _161  and  _162
REMARK   68  A    between atoms: _161  and  _164
REMARK   69  A    between atoms: _164  and  _165
REMARK   70  A    between atoms: _170  and  _172
REMARK   71  A    between atoms: _172  and  _173
REMARK   72  A    between atoms: _176  and  _178
REMARK   73  A    between atoms: _178  and  _179
REMARK   74  A    between atoms: _178  and  _181
REMARK   75  A    between atoms: _181  and  _182
REMARK   76  A    between atoms: _185  and  _187
REMARK   77  A    between atoms: _187  and  _188
REMARK   78  A    between atoms: _187  and  _190
REMARK   79  A    between atoms: _190  and  _191
REMARK   80  A    between atoms: _191  and  _192
REMARK   81  A    between atoms: _195  and  _197
REMARK   82  A    between atoms: _197  and  _198
REMARK   83  A    between atoms: _197  and  _200
REMARK   84  A    between atoms: _200  and  _201
REMARK   85  A    between atoms: _206  and  _207
REMARK   86  A    between atoms: _209  and  _211
REMARK   87  A    between atoms: _211  and  _212
REMARK   88  A    between atoms: _211  and  _214
REMARK   89  A    between atoms: _214  and  _215
REMARK   90  A    between atoms: _220  and  _222
REMARK   91  A    between atoms: _222  and  _223
REMARK   92  A    between atoms: _225  and  _227
REMARK   93  A    between atoms: _227  and  _228
REMARK   94  A    between atoms: _227  and  _230
REMARK   95  A    between atoms: _230  and  _231
REMARK   96  A    between atoms: _234  and  _236
REMARK   97  A    between atoms: _236  and  _237
REMARK   98  A    between atoms: _236  and  _239
REMARK   99  A    between atoms: _239  and  _240
REMARK  100  A    between atoms: _243  and  _245
REMARK  101  A    between atoms: _245  and  _246
REMARK  102  A    between atoms: _245  and  _248
REMARK  103  A    between atoms: _248  and  _249
REMARK  104  A    between atoms: _249  and  _250
REMARK  105  A    between atoms: _250  and  _251
REMARK  106  A    between atoms: _260  and  _262
REMARK  107  A    between atoms: _262  and  _263
REMARK                            x       y       z     vdW  Elec       q    Type
REMARK                         _______ _______ _______ _____ _____    ______ ____
ROOT
ATOM      1  O   HOH     1      28.807  41.171  -6.162  0.00  0.00    +0.000 OA
ENDROOT
TORSDOF 0
REMARK  Name = ../refined-set-2016/4qsu/4qsu_pocket.pdb
REMARK  107 active torsions:
REMARK  status: ('A' for Active; 'I' for Inactive)
REMARK    1  A    between atoms: _1  and  _3
REMARK    2  A    between atoms: _3  and  _4
REMARK    3  A    between atoms: _3  and  _6
REMARK    4  A    between atoms: _6  and  _7
REMARK    5  A    between atoms: _7  and  _8
REMARK    6  A    between atoms: _8  and  _9
REMARK    7  A    between atoms: _18  and  _20
REMARK    8  A    between atoms: _20  and  _21
REMARK    9  A    between atoms: _20  and  _23
REMARK   10  A    between atoms: _26  and  _28
REMARK   11  A    between atoms: _28  and  _29
REMARK   12  A    between atoms: _28  and  _31
REMARK   13  A    between atoms: _31  and  _32
REMARK   14  A    between atoms: _38  and  _40
REMARK   15  A    between atoms: _40  and  _41
REMARK   16  A    between atoms: _40  and  _43
REMARK   17  A    between atoms: _43  and  _44
REMARK   18  A    between atoms: _47  and  _49
REMARK   19  A    between atoms: _49  and  _50
REMARK   20  A    between atoms: _49  and  _52
REMARK   21  A    between atoms: _52  and  _53
REMARK   22  A    between atoms: _53  and  _54
REMARK   23  A    between atoms: _54  and  _55
REMARK   24  A    between atoms: _55  and  _56
REMARK   25  A    between atoms: _61  and  _62
REMARK   26  A    between atoms: _67  and  _69
REMARK   27  A    between atoms: _69  and  _70
REMARK   28  A    between atoms: _69  and  _72
REMARK   29  A    between atoms: _75  and  _77
REMARK   30  A    between atoms: _77  and  _78
REMARK   31  A    between atoms: _77  and  _80
REMARK   32  A    between atoms: _80  and  _81
REMARK   33  A    between atoms: _84  and  _86
REMARK   34  A    between atoms: _86  and  _87
REMARK   35  A    between atoms: _86  and  _89
REMARK   36  A    between atoms: _89  and  _90
REMARK   37  A    between atoms: _90  and  _91
REMARK   38  A    between atoms: _94  and  _96
REMARK   39  A    between atoms: _96  and  _97
REMARK   40  A    between atoms: _96  and  _99
REMARK   41  A    between atoms: _102  and  _104
REMARK   42  A    between atoms: _104  and  _105
REMARK   43  A    between atoms: _104  and  _107
REMARK   44  A    between atoms: _107  and  _108
REMARK   45  A    between atoms: _113  and  _114
REMARK   46  A    between atoms: _116  and  _118
REMARK   47  A    between atoms: _118  and  _119
REMARK   48  A    between atoms: _118  and  _121
REMARK   49  A    between atoms: _121  and  _122
REMARK   50  A    between atoms: _125  and  _127
REMARK   51  A    between atoms: _127  and  _128
REMARK   52  A    between atoms: _127  and  _130
REMARK   53  A    between atoms: _130  and  _131
REMARK   54  A    between atoms: _131  and  _132
REMARK   55  A    between atoms: _134  and  _136
REMARK   56  A    between atoms: _136  and  _137
REMARK   57  A    between atoms: _136  and  _139
REMARK   58  A    between atoms: _139  and  _140
REMARK   59  A    between atoms: _143  and  _145
REMARK   60  A    between atoms: _145  and  _146
REMARK   61  A    between atoms: _145  and  _148
REMARK   62  A    between atoms: _148  and  _149
REMARK   63  A    between atoms: _152  and  _154
REMARK   64  A    between atoms: _154  and  _155
REMARK   65  A    between atoms: _154  and  _157
REMARK   66  A    between atoms: _159  and  _161
REMARK   67  A    between atoms: _161  and  _162
REMARK   68  A    between atoms: _161  and  _164
REMARK   69  A    between atoms: _164  and  _165
REMARK   70  A    between atoms: _170  and  _172
REMARK   71  A    between atoms: _172  and  _173
REMARK   72  A    between atoms: _176  and  _178
REMARK   73  A    between atoms: _178  and  _179
REMARK   74  A    between atoms: _178  and  _181
REMARK   75  A    between atoms: _181  and  _182
REMARK   76  A    between atoms: _185  and  _187
REMARK   77  A    between atoms: _187  and  _188
REMARK   78  A    between atoms: _187  and  _190
REMARK   79  A    between atoms: _190  and  _191
REMARK   80  A    between atoms: _191  and  _192
REMARK   81  A    between atoms: _195  and  _197
REMARK   82  A    between atoms: _197  and  _198
REMARK   83  A    between atoms: _197  and  _200
REMARK   84  A    between atoms: _200  and  _201
REMARK   85  A    between atoms: _206  and  _207
REMARK   86  A    between atoms: _209  and  _211
REMARK   87  A    between atoms: _211  and  _212
REMARK   88  A    between atoms: _211  and  _214
REMARK   89  A    between atoms: _214  and  _215
REMARK   90  A    between atoms: _220  and  _222
REMARK   91  A    between atoms: _222  and  _223
REMARK   92  A    between atoms: _225  and  _227
REMARK   93  A    between atoms: _227  and  _228
REMARK   94  A    between atoms: _227  and  _230
REMARK   95  A    between atoms: _230  and  _231
REMARK   96  A    between atoms: _234  and  _236
REMARK   97  A    between atoms: _236  and  _237
REMARK   98  A    between atoms: _236  and  _239
REMARK   99  A    between atoms: _239  and  _240
REMARK  100  A    between atoms: _243  and  _245
REMARK  101  A    between atoms: _245  and  _246
REMARK  102  A    between atoms: _245  and  _248
REMARK  103  A    between atoms: _248  and  _249
REMARK  104  A    between atoms: _249  and  _250
REMARK  105  A    between atoms: _250  and  _251
REMARK  106  A    between atoms: _260  and  _262
REMARK  107  A    between atoms: _262  and  _263
REMARK                            x       y       z     vdW  Elec       q    Type
REMARK                         _______ _______ _______ _____ _____    ______ ____
ROOT
ATOM      1  O   HOH     1      28.505  41.948 -17.558  0.00  0.00    +0.000 OA
ENDROOT
TORSDOF 0
REMARK  Name = ../refined-set-2016/4qsu/4qsu_pocket.pdb
REMARK  107 active torsions:
REMARK  status: ('A' for Active; 'I' for Inactive)
REMARK    1  A    between atoms: _1  and  _3
REMARK    2  A    between atoms: _3  and  _4
REMARK    3  A    between atoms: _3  and  _6
REMARK    4  A    between atoms: _6  and  _7
REMARK    5  A    between atoms: _7  and  _8
REMARK    6  A    between atoms: _8  and  _9
REMARK    7  A    between atoms: _18  and  _20
REMARK    8  A    between atoms: _20  and  _21
REMARK    9  A    between atoms: _20  and  _23
REMARK   10  A    between atoms: _26  and  _28
REMARK   11  A    between atoms: _28  and  _29
REMARK   12  A    between atoms: _28  and  _31
REMARK   13  A    between atoms: _31  and  _32
REMARK   14  A    between atoms: _38  and  _40
REMARK   15  A    between atoms: _40  and  _41
REMARK   16  A    between atoms: _40  and  _43
REMARK   17  A    between atoms: _43  and  _44
REMARK   18  A    between atoms: _47  and  _49
REMARK   19  A    between atoms: _49  and  _50
REMARK   20  A    between atoms: _49  and  _52
REMARK   21  A    between atoms: _52  and  _53
REMARK   22  A    between atoms: _53  and  _54
REMARK   23  A    between atoms: _54  and  _55
REMARK   24  A    between atoms: _55  and  _56
REMARK   25  A    between atoms: _61  and  _62
REMARK   26  A    between atoms: _67  and  _69
REMARK   27  A    between atoms: _69  and  _70
REMARK   28  A    between atoms: _69  and  _72
REMARK   29  A    between atoms: _75  and  _77
REMARK   30  A    between atoms: _77  and  _78
REMARK   31  A    between atoms: _77  and  _80
REMARK   32  A    between atoms: _80  and  _81
REMARK   33  A    between atoms: _84  and  _86
REMARK   34  A    between atoms: _86  and  _87
REMARK   35  A    between atoms: _86  and  _89
REMARK   36  A    between atoms: _89  and  _90
REMARK   37  A    between atoms: _90  and  _91
REMARK   38  A    between atoms: _94  and  _96
REMARK   39  A    between atoms: _96  and  _97
REMARK   40  A    between atoms: _96  and  _99
REMARK   41  A    between atoms: _102  and  _104
REMARK   42  A    between atoms: _104  and  _105
REMARK   43  A    between atoms: _104  and  _107
REMARK   44  A    between atoms: _107  and  _108
REMARK   45  A    between atoms: _113  and  _114
REMARK   46  A    between atoms: _116  and  _118
REMARK   47  A    between atoms: _118  and  _119
REMARK   48  A    between atoms: _118  and  _121
REMARK   49  A    between atoms: _121  and  _122
REMARK   50  A    between atoms: _125  and  _127
REMARK   51  A    between atoms: _127  and  _128
REMARK   52  A    between atoms: _127  and  _130
REMARK   53  A    between atoms: _130  and  _131
REMARK   54  A    between atoms: _131  and  _132
REMARK   55  A    between atoms: _134  and  _136
REMARK   56  A    between atoms: _136  and  _137
REMARK   57  A    between atoms: _136  and  _139
REMARK   58  A    between atoms: _139  and  _140
REMARK   59  A    between atoms: _143  and  _145
REMARK   60  A    between atoms: _145  and  _146
REMARK   61  A    between atoms: _145  and  _148
REMARK   62  A    between atoms: _148  and  _149
REMARK   63  A    between atoms: _152  and  _154
REMARK   64  A    between atoms: _154  and  _155
REMARK   65  A    between atoms: _154  and  _157
REMARK   66  A    between atoms: _159  and  _161
REMARK   67  A    between atoms: _161  and  _162
REMARK   68  A    between atoms: _161  and  _164
REMARK   69  A    between atoms: _164  and  _165
REMARK   70  A    between atoms: _170  and  _172
REMARK   71  A    between atoms: _172  and  _173
REMARK   72  A    between atoms: _176  and  _178
REMARK   73  A    between atoms: _178  and  _179
REMARK   74  A    between atoms: _178  and  _181
REMARK   75  A    between atoms: _181  and  _182
REMARK   76  A    between atoms: _185  and  _187
REMARK   77  A    between atoms: _187  and  _188
REMARK   78  A    between atoms: _187  and  _190
REMARK   79  A    between atoms: _190  and  _191
REMARK   80  A    between atoms: _191  and  _192
REMARK   81  A    between atoms: _195  and  _197
REMARK   82  A    between atoms: _197  and  _198
REMARK   83  A    between atoms: _197  and  _200
REMARK   84  A    between atoms: _200  and  _201
REMARK   85  A    between atoms: _206  and  _207
REMARK   86  A    between atoms: _209  and  _211
REMARK   87  A    between atoms: _211  and  _212
REMARK   88  A    between atoms: _211  and  _214
REMARK   89  A    between atoms: _214  and  _215
REMARK   90  A    between atoms: _220  and  _222
REMARK   91  A    between atoms: _222  and  _223
REMARK   92  A    between atoms: _225  and  _227
REMARK   93  A    between atoms: _227  and  _228
REMARK   94  A    between atoms: _227  and  _230
REMARK   95  A    between atoms: _230  and  _231
REMARK   96  A    between atoms: _234  and  _236
REMARK   97  A    between atoms: _236  and  _237
REMARK   98  A    between atoms: _236  and  _239
REMARK   99  A    between atoms: _239  and  _240
REMARK  100  A    between atoms: _243  and  _245
REMARK  101  A    between atoms: _245  and  _246
REMARK  102  A    between atoms: _245  and  _248
REMARK  103  A    between atoms: _248  and  _249
REMARK  104  A    between atoms: _249  and  _250
REMARK  105  A    between atoms: _250  and  _251
REMARK  106  A    between atoms: _260  and  _262
REMARK  107  A    between atoms: _262  and  _263
REMARK                            x       y       z     vdW  Elec       q    Type
REMARK                         _______ _______ _______ _____ _____    ______ ____
ROOT
ATOM      1  O   HOH     1      29.687  43.904  -6.234  0.00  0.00    +0.000 OA
ENDROOT
TORSDOF 0
REMARK  Name = ../refined-set-2016/4qsu/4qsu_pocket.pdb
REMARK  107 active torsions:
REMARK  status: ('A' for Active; 'I' for Inactive)
REMARK    1  A    between atoms: _1  and  _3
REMARK    2  A    between atoms: _3  and  _4
REMARK    3  A    between atoms: _3  and  _6
REMARK    4  A    between atoms: _6  and  _7
REMARK    5  A    between atoms: _7  and  _8
REMARK    6  A    between atoms: _8  and  _9
REMARK    7  A    between atoms: _18  and  _20
REMARK    8  A    between atoms: _20  and  _21
REMARK    9  A    between atoms: _20  and  _23
REMARK   10  A    between atoms: _26  and  _28
REMARK   11  A    between atoms: _28  and  _29
REMARK   12  A    between atoms: _28  and  _31
REMARK   13  A    between atoms: _31  and  _32
REMARK   14  A    between atoms: _38  and  _40
REMARK   15  A    between atoms: _40  and  _41
REMARK   16  A    between atoms: _40  and  _43
REMARK   17  A    between atoms: _43  and  _44
REMARK   18  A    between atoms: _47  and  _49
REMARK   19  A    between atoms: _49  and  _50
REMARK   20  A    between atoms: _49  and  _52
REMARK   21  A    between atoms: _52  and  _53
REMARK   22  A    between atoms: _53  and  _54
REMARK   23  A    between atoms: _54  and  _55
REMARK   24  A    between atoms: _55  and  _56
REMARK   25  A    between atoms: _61  and  _62
REMARK   26  A    between atoms: _67  and  _69
REMARK   27  A    between atoms: _69  and  _70
REMARK   28  A    between atoms: _69  and  _72
REMARK   29  A    between atoms: _75  and  _77
REMARK   30  A    between atoms: _77  and  _78
REMARK   31  A    between atoms: _77  and  _80
REMARK   32  A    between atoms: _80  and  _81
REMARK   33  A    between atoms: _84  and  _86
REMARK   34  A    between atoms: _86  and  _87
REMARK   35  A    between atoms: _86  and  _89
REMARK   36  A    between atoms: _89  and  _90
REMARK   37  A    between atoms: _90  and  _91
REMARK   38  A    between atoms: _94  and  _96
REMARK   39  A    between atoms: _96  and  _97
REMARK   40  A    between atoms: _96  and  _99
REMARK   41  A    between atoms: _102  and  _104
REMARK   42  A    between atoms: _104  and  _105
REMARK   43  A    between atoms: _104  and  _107
REMARK   44  A    between atoms: _107  and  _108
REMARK   45  A    between atoms: _113  and  _114
REMARK   46  A    between atoms: _116  and  _118
REMARK   47  A    between atoms: _118  and  _119
REMARK   48  A    between atoms: _118  and  _121
REMARK   49  A    between atoms: _121  and  _122
REMARK   50  A    between atoms: _125  and  _127
REMARK   51  A    between atoms: _127  and  _128
REMARK   52  A    between atoms: _127  and  _130
REMARK   53  A    between atoms: _130  and  _131
REMARK   54  A    between atoms: _131  and  _132
REMARK   55  A    between atoms: _134  and  _136
REMARK   56  A    between atoms: _136  and  _137
REMARK   57  A    between atoms: _136  and  _139
REMARK   58  A    between atoms: _139  and  _140
REMARK   59  A    between atoms: _143  and  _145
REMARK   60  A    between atoms: _145  and  _146
REMARK   61  A    between atoms: _145  and  _148
REMARK   62  A    between atoms: _148  and  _149
REMARK   63  A    between atoms: _152  and  _154
REMARK   64  A    between atoms: _154  and  _155
REMARK   65  A    between atoms: _154  and  _157
REMARK   66  A    between atoms: _159  and  _161
REMARK   67  A    between atoms: _161  and  _162
REMARK   68  A    between atoms: _161  and  _164
REMARK   69  A    between atoms: _164  and  _165
REMARK   70  A    between atoms: _170  and  _172
REMARK   71  A    between atoms: _172  and  _173
REMARK   72  A    between atoms: _176  and  _178
REMARK   73  A    between atoms: _178  and  _179
REMARK   74  A    between atoms: _178  and  _181
REMARK   75  A    between atoms: _181  and  _182
REMARK   76  A    between atoms: _185  and  _187
REMARK   77  A    between atoms: _187  and  _188
REMARK   78  A    between atoms: _187  and  _190
REMARK   79  A    between atoms: _190  and  _191
REMARK   80  A    between atoms: _191  and  _192
REMARK   81  A    between atoms: _195  and  _197
REMARK   82  A    between atoms: _197  and  _198
REMARK   83  A    between atoms: _197  and  _200
REMARK   84  A    between atoms: _200  and  _201
REMARK   85  A    between atoms: _206  and  _207
REMARK   86  A    between atoms: _209  and  _211
REMARK   87  A    between atoms: _211  and  _212
REMARK   88  A    between atoms: _211  and  _214
REMARK   89  A    between atoms: _214  and  _215
REMARK   90  A    between atoms: _220  and  _222
REMARK   91  A    between atoms: _222  and  _223
REMARK   92  A    between atoms: _225  and  _227
REMARK   93  A    between atoms: _227  and  _228
REMARK   94  A    between atoms: _227  and  _230
REMARK   95  A    between atoms: _230  and  _231
REMARK   96  A    between atoms: _234  and  _236
REMARK   97  A    between atoms: _236  and  _237
REMARK   98  A    between atoms: _236  and  _239
REMARK   99  A    between atoms: _239  and  _240
REMARK  100  A    between atoms: _243  and  _245
REMARK  101  A    between atoms: _245  and  _246
REMARK  102  A    between atoms: _245  and  _248
REMARK  103  A    between atoms: _248  and  _249
REMARK  104  A    between atoms: _249  and  _250
REMARK  105  A    between atoms: _250  and  _251
REMARK  106  A    between atoms: _260  and  _262
REMARK  107  A    between atoms: _262  and  _263
REMARK                            x       y       z     vdW  Elec       q    Type
REMARK                         _______ _______ _______ _____ _____    ______ ____
ROOT
ATOM      1  O   HOH     1      30.934  40.678  -8.056  0.00  0.00    +0.000 OA
ENDROOT
TORSDOF 0
REMARK  Name = ../refined-set-2016/4qsu/4qsu_pocket.pdb
REMARK  107 active torsions:
REMARK  status: ('A' for Active; 'I' for Inactive)
REMARK    1  A    between atoms: _1  and  _3
REMARK    2  A    between atoms: _3  and  _4
REMARK    3  A    between atoms: _3  and  _6
REMARK    4  A    between atoms: _6  and  _7
REMARK    5  A    between atoms: _7  and  _8
REMARK    6  A    between atoms: _8  and  _9
REMARK    7  A    between atoms: _18  and  _20
REMARK    8  A    between atoms: _20  and  _21
REMARK    9  A    between atoms: _20  and  _23
REMARK   10  A    between atoms: _26  and  _28
REMARK   11  A    between atoms: _28  and  _29
REMARK   12  A    between atoms: _28  and  _31
REMARK   13  A    between atoms: _31  and  _32
REMARK   14  A    between atoms: _38  and  _40
REMARK   15  A    between atoms: _40  and  _41
REMARK   16  A    between atoms: _40  and  _43
REMARK   17  A    between atoms: _43  and  _44
REMARK   18  A    between atoms: _47  and  _49
REMARK   19  A    between atoms: _49  and  _50
REMARK   20  A    between atoms: _49  and  _52
REMARK   21  A    between atoms: _52  and  _53
REMARK   22  A    between atoms: _53  and  _54
REMARK   23  A    between atoms: _54  and  _55
REMARK   24  A    between atoms: _55  and  _56
REMARK   25  A    between atoms: _61  and  _62
REMARK   26  A    between atoms: _67  and  _69
REMARK   27  A    between atoms: _69  and  _70
REMARK   28  A    between atoms: _69  and  _72
REMARK   29  A    between atoms: _75  and  _77
REMARK   30  A    between atoms: _77  and  _78
REMARK   31  A    between atoms: _77  and  _80
REMARK   32  A    between atoms: _80  and  _81
REMARK   33  A    between atoms: _84  and  _86
REMARK   34  A    between atoms: _86  and  _87
REMARK   35  A    between atoms: _86  and  _89
REMARK   36  A    between atoms: _89  and  _90
REMARK   37  A    between atoms: _90  and  _91
REMARK   38  A    between atoms: _94  and  _96
REMARK   39  A    between atoms: _96  and  _97
REMARK   40  A    between atoms: _96  and  _99
REMARK   41  A    between atoms: _102  and  _104
REMARK   42  A    between atoms: _104  and  _105
REMARK   43  A    between atoms: _104  and  _107
REMARK   44  A    between atoms: _107  and  _108
REMARK   45  A    between atoms: _113  and  _114
REMARK   46  A    between atoms: _116  and  _118
REMARK   47  A    between atoms: _118  and  _119
REMARK   48  A    between atoms: _118  and  _121
REMARK   49  A    between atoms: _121  and  _122
REMARK   50  A    between atoms: _125  and  _127
REMARK   51  A    between atoms: _127  and  _128
REMARK   52  A    between atoms: _127  and  _130
REMARK   53  A    between atoms: _130  and  _131
REMARK   54  A    between atoms: _131  and  _132
REMARK   55  A    between atoms: _134  and  _136
REMARK   56  A    between atoms: _136  and  _137
REMARK   57  A    between atoms: _136  and  _139
REMARK   58  A    between atoms: _139  and  _140
REMARK   59  A    between atoms: _143  and  _145
REMARK   60  A    between atoms: _145  and  _146
REMARK   61  A    between atoms: _145  and  _148
REMARK   62  A    between atoms: _148  and  _149
REMARK   63  A    between atoms: _152  and  _154
REMARK   64  A    between atoms: _154  and  _155
REMARK   65  A    between atoms: _154  and  _157
REMARK   66  A    between atoms: _159  and  _161
REMARK   67  A    between atoms: _161  and  _162
REMARK   68  A    between atoms: _161  and  _164
REMARK   69  A    between atoms: _164  and  _165
REMARK   70  A    between atoms: _170  and  _172
REMARK   71  A    between atoms: _172  and  _173
REMARK   72  A    between atoms: _176  and  _178
REMARK   73  A    between atoms: _178  and  _179
REMARK   74  A    between atoms: _178  and  _181
REMARK   75  A    between atoms: _181  and  _182
REMARK   76  A    between atoms: _185  and  _187
REMARK   77  A    between atoms: _187  and  _188
REMARK   78  A    between atoms: _187  and  _190
REMARK   79  A    between atoms: _190  and  _191
REMARK   80  A    between atoms: _191  and  _192
REMARK   81  A    between atoms: _195  and  _197
REMARK   82  A    between atoms: _197  and  _198
REMARK   83  A    between atoms: _197  and  _200
REMARK   84  A    between atoms: _200  and  _201
REMARK   85  A    between atoms: _206  and  _207
REMARK   86  A    between atoms: _209  and  _211
REMARK   87  A    between atoms: _211  and  _212
REMARK   88  A    between atoms: _211  and  _214
REMARK   89  A    between atoms: _214  and  _215
REMARK   90  A    between atoms: _220  and  _222
REMARK   91  A    between atoms: _222  and  _223
REMARK   92  A    between atoms: _225  and  _227
REMARK   93  A    between atoms: _227  and  _228
REMARK   94  A    between atoms: _227  and  _230
REMARK   95  A    between atoms: _230  and  _231
REMARK   96  A    between atoms: _234  and  _236
REMARK   97  A    between atoms: _236  and  _237
REMARK   98  A    between atoms: _236  and  _239
REMARK   99  A    between atoms: _239  and  _240
REMARK  100  A    between atoms: _243  and  _245
REMARK  101  A    between atoms: _245  and  _246
REMARK  102  A    between atoms: _245  and  _248
REMARK  103  A    between atoms: _248  and  _249
REMARK  104  A    between atoms: _249  and  _250
REMARK  105  A    between atoms: _250  and  _251
REMARK  106  A    between atoms: _260  and  _262
REMARK  107  A    between atoms: _262  and  _263
REMARK                            x       y       z     vdW  Elec       q    Type
REMARK                         _______ _______ _______ _____ _____    ______ ____
ROOT
ATOM      1  O   HOH     1      21.571  42.668 -11.831  0.00  0.00    +0.000 OA
ENDROOT
TORSDOF 0
REMARK  Name = ../refined-set-2016/4qsu/4qsu_pocket.pdb
REMARK  107 active torsions:
REMARK  status: ('A' for Active; 'I' for Inactive)
REMARK    1  A    between atoms: _1  and  _3
REMARK    2  A    between atoms: _3  and  _4
REMARK    3  A    between atoms: _3  and  _6
REMARK    4  A    between atoms: _6  and  _7
REMARK    5  A    between atoms: _7  and  _8
REMARK    6  A    between atoms: _8  and  _9
REMARK    7  A    between atoms: _18  and  _20
REMARK    8  A    between atoms: _20  and  _21
REMARK    9  A    between atoms: _20  and  _23
REMARK   10  A    between atoms: _26  and  _28
REMARK   11  A    between atoms: _28  and  _29
REMARK   12  A    between atoms: _28  and  _31
REMARK   13  A    between atoms: _31  and  _32
REMARK   14  A    between atoms: _38  and  _40
REMARK   15  A    between atoms: _40  and  _41
REMARK   16  A    between atoms: _40  and  _43
REMARK   17  A    between atoms: _43  and  _44
REMARK   18  A    between atoms: _47  and  _49
REMARK   19  A    between atoms: _49  and  _50
REMARK   20  A    between atoms: _49  and  _52
REMARK   21  A    between atoms: _52  and  _53
REMARK   22  A    between atoms: _53  and  _54
REMARK   23  A    between atoms: _54  and  _55
REMARK   24  A    between atoms: _55  and  _56
REMARK   25  A    between atoms: _61  and  _62
REMARK   26  A    between atoms: _67  and  _69
REMARK   27  A    between atoms: _69  and  _70
REMARK   28  A    between atoms: _69  and  _72
REMARK   29  A    between atoms: _75  and  _77
REMARK   30  A    between atoms: _77  and  _78
REMARK   31  A    between atoms: _77  and  _80
REMARK   32  A    between atoms: _80  and  _81
REMARK   33  A    between atoms: _84  and  _86
REMARK   34  A    between atoms: _86  and  _87
REMARK   35  A    between atoms: _86  and  _89
REMARK   36  A    between atoms: _89  and  _90
REMARK   37  A    between atoms: _90  and  _91
REMARK   38  A    between atoms: _94  and  _96
REMARK   39  A    between atoms: _96  and  _97
REMARK   40  A    between atoms: _96  and  _99
REMARK   41  A    between atoms: _102  and  _104
REMARK   42  A    between atoms: _104  and  _105
REMARK   43  A    between atoms: _104  and  _107
REMARK   44  A    between atoms: _107  and  _108
REMARK   45  A    between atoms: _113  and  _114
REMARK   46  A    between atoms: _116  and  _118
REMARK   47  A    between atoms: _118  and  _119
REMARK   48  A    between atoms: _118  and  _121
REMARK   49  A    between atoms: _121  and  _122
REMARK   50  A    between atoms: _125  and  _127
REMARK   51  A    between atoms: _127  and  _128
REMARK   52  A    between atoms: _127  and  _130
REMARK   53  A    between atoms: _130  and  _131
REMARK   54  A    between atoms: _131  and  _132
REMARK   55  A    between atoms: _134  and  _136
REMARK   56  A    between atoms: _136  and  _137
REMARK   57  A    between atoms: _136  and  _139
REMARK   58  A    between atoms: _139  and  _140
REMARK   59  A    between atoms: _143  and  _145
REMARK   60  A    between atoms: _145  and  _146
REMARK   61  A    between atoms: _145  and  _148
REMARK   62  A    between atoms: _148  and  _149
REMARK   63  A    between atoms: _152  and  _154
REMARK   64  A    between atoms: _154  and  _155
REMARK   65  A    between atoms: _154  and  _157
REMARK   66  A    between atoms: _159  and  _161
REMARK   67  A    between atoms: _161  and  _162
REMARK   68  A    between atoms: _161  and  _164
REMARK   69  A    between atoms: _164  and  _165
REMARK   70  A    between atoms: _170  and  _172
REMARK   71  A    between atoms: _172  and  _173
REMARK   72  A    between atoms: _176  and  _178
REMARK   73  A    between atoms: _178  and  _179
REMARK   74  A    between atoms: _178  and  _181
REMARK   75  A    between atoms: _181  and  _182
REMARK   76  A    between atoms: _185  and  _187
REMARK   77  A    between atoms: _187  and  _188
REMARK   78  A    between atoms: _187  and  _190
REMARK   79  A    between atoms: _190  and  _191
REMARK   80  A    between atoms: _191  and  _192
REMARK   81  A    between atoms: _195  and  _197
REMARK   82  A    between atoms: _197  and  _198
REMARK   83  A    between atoms: _197  and  _200
REMARK   84  A    between atoms: _200  and  _201
REMARK   85  A    between atoms: _206  and  _207
REMARK   86  A    between atoms: _209  and  _211
REMARK   87  A    between atoms: _211  and  _212
REMARK   88  A    between atoms: _211  and  _214
REMARK   89  A    between atoms: _214  and  _215
REMARK   90  A    between atoms: _220  and  _222
REMARK   91  A    between atoms: _222  and  _223
REMARK   92  A    between atoms: _225  and  _227
REMARK   93  A    between atoms: _227  and  _228
REMARK   94  A    between atoms: _227  and  _230
REMARK   95  A    between atoms: _230  and  _231
REMARK   96  A    between atoms: _234  and  _236
REMARK   97  A    between atoms: _236  and  _237
REMARK   98  A    between atoms: _236  and  _239
REMARK   99  A    between atoms: _239  and  _240
REMARK  100  A    between atoms: _243  and  _245
REMARK  101  A    between atoms: _245  and  _246
REMARK  102  A    between atoms: _245  and  _248
REMARK  103  A    between atoms: _248  and  _249
REMARK  104  A    between atoms: _249  and  _250
REMARK  105  A    between atoms: _250  and  _251
REMARK  106  A    between atoms: _260  and  _262
REMARK  107  A    between atoms: _262  and  _263
REMARK                            x       y       z     vdW  Elec       q    Type
REMARK                         _______ _______ _______ _____ _____    ______ ____
ROOT
ATOM      1  O   HOH     1      23.884  48.856  -6.975  0.00  0.00    +0.000 OA
ENDROOT
TORSDOF 0
REMARK  Name = ../refined-set-2016/4qsu/4qsu_pocket.pdb
REMARK  107 active torsions:
REMARK  status: ('A' for Active; 'I' for Inactive)
REMARK    1  A    between atoms: _1  and  _3
REMARK    2  A    between atoms: _3  and  _4
REMARK    3  A    between atoms: _3  and  _6
REMARK    4  A    between atoms: _6  and  _7
REMARK    5  A    between atoms: _7  and  _8
REMARK    6  A    between atoms: _8  and  _9
REMARK    7  A    between atoms: _18  and  _20
REMARK    8  A    between atoms: _20  and  _21
REMARK    9  A    between atoms: _20  and  _23
REMARK   10  A    between atoms: _26  and  _28
REMARK   11  A    between atoms: _28  and  _29
REMARK   12  A    between atoms: _28  and  _31
REMARK   13  A    between atoms: _31  and  _32
REMARK   14  A    between atoms: _38  and  _40
REMARK   15  A    between atoms: _40  and  _41
REMARK   16  A    between atoms: _40  and  _43
REMARK   17  A    between atoms: _43  and  _44
REMARK   18  A    between atoms: _47  and  _49
REMARK   19  A    between atoms: _49  and  _50
REMARK   20  A    between atoms: _49  and  _52
REMARK   21  A    between atoms: _52  and  _53
REMARK   22  A    between atoms: _53  and  _54
REMARK   23  A    between atoms: _54  and  _55
REMARK   24  A    between atoms: _55  and  _56
REMARK   25  A    between atoms: _61  and  _62
REMARK   26  A    between atoms: _67  and  _69
REMARK   27  A    between atoms: _69  and  _70
REMARK   28  A    between atoms: _69  and  _72
REMARK   29  A    between atoms: _75  and  _77
REMARK   30  A    between atoms: _77  and  _78
REMARK   31  A    between atoms: _77  and  _80
REMARK   32  A    between atoms: _80  and  _81
REMARK   33  A    between atoms: _84  and  _86
REMARK   34  A    between atoms: _86  and  _87
REMARK   35  A    between atoms: _86  and  _89
REMARK   36  A    between atoms: _89  and  _90
REMARK   37  A    between atoms: _90  and  _91
REMARK   38  A    between atoms: _94  and  _96
REMARK   39  A    between atoms: _96  and  _97
REMARK   40  A    between atoms: _96  and  _99
REMARK   41  A    between atoms: _102  and  _104
REMARK   42  A    between atoms: _104  and  _105
REMARK   43  A    between atoms: _104  and  _107
REMARK   44  A    between atoms: _107  and  _108
REMARK   45  A    between atoms: _113  and  _114
REMARK   46  A    between atoms: _116  and  _118
REMARK   47  A    between atoms: _118  and  _119
REMARK   48  A    between atoms: _118  and  _121
REMARK   49  A    between atoms: _121  and  _122
REMARK   50  A    between atoms: _125  and  _127
REMARK   51  A    between atoms: _127  and  _128
REMARK   52  A    between atoms: _127  and  _130
REMARK   53  A    between atoms: _130  and  _131
REMARK   54  A    between atoms: _131  and  _132
REMARK   55  A    between atoms: _134  and  _136
REMARK   56  A    between atoms: _136  and  _137
REMARK   57  A    between atoms: _136  and  _139
REMARK   58  A    between atoms: _139  and  _140
REMARK   59  A    between atoms: _143  and  _145
REMARK   60  A    between atoms: _145  and  _146
REMARK   61  A    between atoms: _145  and  _148
REMARK   62  A    between atoms: _148  and  _149
REMARK   63  A    between atoms: _152  and  _154
REMARK   64  A    between atoms: _154  and  _155
REMARK   65  A    between atoms: _154  and  _157
REMARK   66  A    between atoms: _159  and  _161
REMARK   67  A    between atoms: _161  and  _162
REMARK   68  A    between atoms: _161  and  _164
REMARK   69  A    between atoms: _164  and  _165
REMARK   70  A    between atoms: _170  and  _172
REMARK   71  A    between atoms: _172  and  _173
REMARK   72  A    between atoms: _176  and  _178
REMARK   73  A    between atoms: _178  and  _179
REMARK   74  A    between atoms: _178  and  _181
REMARK   75  A    between atoms: _181  and  _182
REMARK   76  A    between atoms: _185  and  _187
REMARK   77  A    between atoms: _187  and  _188
REMARK   78  A    between atoms: _187  and  _190
REMARK   79  A    between atoms: _190  and  _191
REMARK   80  A    between atoms: _191  and  _192
REMARK   81  A    between atoms: _195  and  _197
REMARK   82  A    between atoms: _197  and  _198
REMARK   83  A    between atoms: _197  and  _200
REMARK   84  A    between atoms: _200  and  _201
REMARK   85  A    between atoms: _206  and  _207
REMARK   86  A    between atoms: _209  and  _211
REMARK   87  A    between atoms: _211  and  _212
REMARK   88  A    between atoms: _211  and  _214
REMARK   89  A    between atoms: _214  and  _215
REMARK   90  A    between atoms: _220  and  _222
REMARK   91  A    between atoms: _222  and  _223
REMARK   92  A    between atoms: _225  and  _227
REMARK   93  A    between atoms: _227  and  _228
REMARK   94  A    between atoms: _227  and  _230
REMARK   95  A    between atoms: _230  and  _231
REMARK   96  A    between atoms: _234  and  _236
REMARK   97  A    between atoms: _236  and  _237
REMARK   98  A    between atoms: _236  and  _239
REMARK   99  A    between atoms: _239  and  _240
REMARK  100  A    between atoms: _243  and  _245
REMARK  101  A    between atoms: _245  and  _246
REMARK  102  A    between atoms: _245  and  _248
REMARK  103  A    between atoms: _248  and  _249
REMARK  104  A    between atoms: _249  and  _250
REMARK  105  A    between atoms: _250  and  _251
REMARK  106  A    between atoms: _260  and  _262
REMARK  107  A    between atoms: _262  and  _263
REMARK                            x       y       z     vdW  Elec       q    Type
REMARK                         _______ _______ _______ _____ _____    ______ ____
ROOT
ATOM      1  O   HOH     1      18.772  47.920 -10.560  0.00  0.00    +0.000 OA
ENDROOT
TORSDOF 0
REMARK  Name = ../refined-set-2016/4qsu/4qsu_pocket.pdb
REMARK  107 active torsions:
REMARK  status: ('A' for Active; 'I' for Inactive)
REMARK    1  A    between atoms: _1  and  _3
REMARK    2  A    between atoms: _3  and  _4
REMARK    3  A    between atoms: _3  and  _6
REMARK    4  A    between atoms: _6  and  _7
REMARK    5  A    between atoms: _7  and  _8
REMARK    6  A    between atoms: _8  and  _9
REMARK    7  A    between atoms: _18  and  _20
REMARK    8  A    between atoms: _20  and  _21
REMARK    9  A    between atoms: _20  and  _23
REMARK   10  A    between atoms: _26  and  _28
REMARK   11  A    between atoms: _28  and  _29
REMARK   12  A    between atoms: _28  and  _31
REMARK   13  A    between atoms: _31  and  _32
REMARK   14  A    between atoms: _38  and  _40
REMARK   15  A    between atoms: _40  and  _41
REMARK   16  A    between atoms: _40  and  _43
REMARK   17  A    between atoms: _43  and  _44
REMARK   18  A    between atoms: _47  and  _49
REMARK   19  A    between atoms: _49  and  _50
REMARK   20  A    between atoms: _49  and  _52
REMARK   21  A    between atoms: _52  and  _53
REMARK   22  A    between atoms: _53  and  _54
REMARK   23  A    between atoms: _54  and  _55
REMARK   24  A    between atoms: _55  and  _56
REMARK   25  A    between atoms: _61  and  _62
REMARK   26  A    between atoms: _67  and  _69
REMARK   27  A    between atoms: _69  and  _70
REMARK   28  A    between atoms: _69  and  _72
REMARK   29  A    between atoms: _75  and  _77
REMARK   30  A    between atoms: _77  and  _78
REMARK   31  A    between atoms: _77  and  _80
REMARK   32  A    between atoms: _80  and  _81
REMARK   33  A    between atoms: _84  and  _86
REMARK   34  A    between atoms: _86  and  _87
REMARK   35  A    between atoms: _86  and  _89
REMARK   36  A    between atoms: _89  and  _90
REMARK   37  A    between atoms: _90  and  _91
REMARK   38  A    between atoms: _94  and  _96
REMARK   39  A    between atoms: _96  and  _97
REMARK   40  A    between atoms: _96  and  _99
REMARK   41  A    between atoms: _102  and  _104
REMARK   42  A    between atoms: _104  and  _105
REMARK   43  A    between atoms: _104  and  _107
REMARK   44  A    between atoms: _107  and  _108
REMARK   45  A    between atoms: _113  and  _114
REMARK   46  A    between atoms: _116  and  _118
REMARK   47  A    between atoms: _118  and  _119
REMARK   48  A    between atoms: _118  and  _121
REMARK   49  A    between atoms: _121  and  _122
REMARK   50  A    between atoms: _125  and  _127
REMARK   51  A    between atoms: _127  and  _128
REMARK   52  A    between atoms: _127  and  _130
REMARK   53  A    between atoms: _130  and  _131
REMARK   54  A    between atoms: _131  and  _132
REMARK   55  A    between atoms: _134  and  _136
REMARK   56  A    between atoms: _136  and  _137
REMARK   57  A    between atoms: _136  and  _139
REMARK   58  A    between atoms: _139  and  _140
REMARK   59  A    between atoms: _143  and  _145
REMARK   60  A    between atoms: _145  and  _146
REMARK   61  A    between atoms: _145  and  _148
REMARK   62  A    between atoms: _148  and  _149
REMARK   63  A    between atoms: _152  and  _154
REMARK   64  A    between atoms: _154  and  _155
REMARK   65  A    between atoms: _154  and  _157
REMARK   66  A    between atoms: _159  and  _161
REMARK   67  A    between atoms: _161  and  _162
REMARK   68  A    between atoms: _161  and  _164
REMARK   69  A    between atoms: _164  and  _165
REMARK   70  A    between atoms: _170  and  _172
REMARK   71  A    between atoms: _172  and  _173
REMARK   72  A    between atoms: _176  and  _178
REMARK   73  A    between atoms: _178  and  _179
REMARK   74  A    between atoms: _178  and  _181
REMARK   75  A    between atoms: _181  and  _182
REMARK   76  A    between atoms: _185  and  _187
REMARK   77  A    between atoms: _187  and  _188
REMARK   78  A    between atoms: _187  and  _190
REMARK   79  A    between atoms: _190  and  _191
REMARK   80  A    between atoms: _191  and  _192
REMARK   81  A    between atoms: _195  and  _197
REMARK   82  A    between atoms: _197  and  _198
REMARK   83  A    between atoms: _197  and  _200
REMARK   84  A    between atoms: _200  and  _201
REMARK   85  A    between atoms: _206  and  _207
REMARK   86  A    between atoms: _209  and  _211
REMARK   87  A    between atoms: _211  and  _212
REMARK   88  A    between atoms: _211  and  _214
REMARK   89  A    between atoms: _214  and  _215
REMARK   90  A    between atoms: _220  and  _222
REMARK   91  A    between atoms: _222  and  _223
REMARK   92  A    between atoms: _225  and  _227
REMARK   93  A    between atoms: _227  and  _228
REMARK   94  A    between atoms: _227  and  _230
REMARK   95  A    between atoms: _230  and  _231
REMARK   96  A    between atoms: _234  and  _236
REMARK   97  A    between atoms: _236  and  _237
REMARK   98  A    between atoms: _236  and  _239
REMARK   99  A    between atoms: _239  and  _240
REMARK  100  A    between atoms: _243  and  _245
REMARK  101  A    between atoms: _245  and  _246
REMARK  102  A    between atoms: _245  and  _248
REMARK  103  A    between atoms: _248  and  _249
REMARK  104  A    between atoms: _249  and  _250
REMARK  105  A    between atoms: _250  and  _251
REMARK  106  A    between atoms: _260  and  _262
REMARK  107  A    between atoms: _262  and  _263
REMARK                            x       y       z     vdW  Elec       q    Type
REMARK                         _______ _______ _______ _____ _____    ______ ____
ROOT
ATOM      1  O   HOH     1      18.889  49.851 -12.629  0.00  0.00    +0.000 OA
ENDROOT
TORSDOF 0
REMARK  Name = ../refined-set-2016/4qsu/4qsu_pocket.pdb
REMARK  107 active torsions:
REMARK  status: ('A' for Active; 'I' for Inactive)
REMARK    1  A    between atoms: _1  and  _3
REMARK    2  A    between atoms: _3  and  _4
REMARK    3  A    between atoms: _3  and  _6
REMARK    4  A    between atoms: _6  and  _7
REMARK    5  A    between atoms: _7  and  _8
REMARK    6  A    between atoms: _8  and  _9
REMARK    7  A    between atoms: _18  and  _20
REMARK    8  A    between atoms: _20  and  _21
REMARK    9  A    between atoms: _20  and  _23
REMARK   10  A    between atoms: _26  and  _28
REMARK   11  A    between atoms: _28  and  _29
REMARK   12  A    between atoms: _28  and  _31
REMARK   13  A    between atoms: _31  and  _32
REMARK   14  A    between atoms: _38  and  _40
REMARK   15  A    between atoms: _40  and  _41
REMARK   16  A    between atoms: _40  and  _43
REMARK   17  A    between atoms: _43  and  _44
REMARK   18  A    between atoms: _47  and  _49
REMARK   19  A    between atoms: _49  and  _50
REMARK   20  A    between atoms: _49  and  _52
REMARK   21  A    between atoms: _52  and  _53
REMARK   22  A    between atoms: _53  and  _54
REMARK   23  A    between atoms: _54  and  _55
REMARK   24  A    between atoms: _55  and  _56
REMARK   25  A    between atoms: _61  and  _62
REMARK   26  A    between atoms: _67  and  _69
REMARK   27  A    between atoms: _69  and  _70
REMARK   28  A    between atoms: _69  and  _72
REMARK   29  A    between atoms: _75  and  _77
REMARK   30  A    between atoms: _77  and  _78
REMARK   31  A    between atoms: _77  and  _80
REMARK   32  A    between atoms: _80  and  _81
REMARK   33  A    between atoms: _84  and  _86
REMARK   34  A    between atoms: _86  and  _87
REMARK   35  A    between atoms: _86  and  _89
REMARK   36  A    between atoms: _89  and  _90
REMARK   37  A    between atoms: _90  and  _91
REMARK   38  A    between atoms: _94  and  _96
REMARK   39  A    between atoms: _96  and  _97
REMARK   40  A    between atoms: _96  and  _99
REMARK   41  A    between atoms: _102  and  _104
REMARK   42  A    between atoms: _104  and  _105
REMARK   43  A    between atoms: _104  and  _107
REMARK   44  A    between atoms: _107  and  _108
REMARK   45  A    between atoms: _113  and  _114
REMARK   46  A    between atoms: _116  and  _118
REMARK   47  A    between atoms: _118  and  _119
REMARK   48  A    between atoms: _118  and  _121
REMARK   49  A    between atoms: _121  and  _122
REMARK   50  A    between atoms: _125  and  _127
REMARK   51  A    between atoms: _127  and  _128
REMARK   52  A    between atoms: _127  and  _130
REMARK   53  A    between atoms: _130  and  _131
REMARK   54  A    between atoms: _131  and  _132
REMARK   55  A    between atoms: _134  and  _136
REMARK   56  A    between atoms: _136  and  _137
REMARK   57  A    between atoms: _136  and  _139
REMARK   58  A    between atoms: _139  and  _140
REMARK   59  A    between atoms: _143  and  _145
REMARK   60  A    between atoms: _145  and  _146
REMARK   61  A    between atoms: _145  and  _148
REMARK   62  A    between atoms: _148  and  _149
REMARK   63  A    between atoms: _152  and  _154
REMARK   64  A    between atoms: _154  and  _155
REMARK   65  A    between atoms: _154  and  _157
REMARK   66  A    between atoms: _159  and  _161
REMARK   67  A    between atoms: _161  and  _162
REMARK   68  A    between atoms: _161  and  _164
REMARK   69  A    between atoms: _164  and  _165
REMARK   70  A    between atoms: _170  and  _172
REMARK   71  A    between atoms: _172  and  _173
REMARK   72  A    between atoms: _176  and  _178
REMARK   73  A    between atoms: _178  and  _179
REMARK   74  A    between atoms: _178  and  _181
REMARK   75  A    between atoms: _181  and  _182
REMARK   76  A    between atoms: _185  and  _187
REMARK   77  A    between atoms: _187  and  _188
REMARK   78  A    between atoms: _187  and  _190
REMARK   79  A    between atoms: _190  and  _191
REMARK   80  A    between atoms: _191  and  _192
REMARK   81  A    between atoms: _195  and  _197
REMARK   82  A    between atoms: _197  and  _198
REMARK   83  A    between atoms: _197  and  _200
REMARK   84  A    between atoms: _200  and  _201
REMARK   85  A    between atoms: _206  and  _207
REMARK   86  A    between atoms: _209  and  _211
REMARK   87  A    between atoms: _211  and  _212
REMARK   88  A    between atoms: _211  and  _214
REMARK   89  A    between atoms: _214  and  _215
REMARK   90  A    between atoms: _220  and  _222
REMARK   91  A    between atoms: _222  and  _223
REMARK   92  A    between atoms: _225  and  _227
REMARK   93  A    between atoms: _227  and  _228
REMARK   94  A    between atoms: _227  and  _230
REMARK   95  A    between atoms: _230  and  _231
REMARK   96  A    between atoms: _234  and  _236
REMARK   97  A    between atoms: _236  and  _237
REMARK   98  A    between atoms: _236  and  _239
REMARK   99  A    between atoms: _239  and  _240
REMARK  100  A    between atoms: _243  and  _245
REMARK  101  A    between atoms: _245  and  _246
REMARK  102  A    between atoms: _245  and  _248
REMARK  103  A    between atoms: _248  and  _249
REMARK  104  A    between atoms: _249  and  _250
REMARK  105  A    between atoms: _250  and  _251
REMARK  106  A    between atoms: _260  and  _262
REMARK  107  A    between atoms: _262  and  _263
REMARK                            x       y       z     vdW  Elec       q    Type
REMARK                         _______ _______ _______ _____ _____    ______ ____
ROOT
ATOM      1  O   HOH     1      28.512  51.122  -6.597  0.00  0.00    +0.000 OA
ENDROOT
TORSDOF 0
REMARK  Name = ../refined-set-2016/4qsu/4qsu_pocket.pdb
REMARK  107 active torsions:
REMARK  status: ('A' for Active; 'I' for Inactive)
REMARK    1  A    between atoms: _1  and  _3
REMARK    2  A    between atoms: _3  and  _4
REMARK    3  A    between atoms: _3  and  _6
REMARK    4  A    between atoms: _6  and  _7
REMARK    5  A    between atoms: _7  and  _8
REMARK    6  A    between atoms: _8  and  _9
REMARK    7  A    between atoms: _18  and  _20
REMARK    8  A    between atoms: _20  and  _21
REMARK    9  A    between atoms: _20  and  _23
REMARK   10  A    between atoms: _26  and  _28
REMARK   11  A    between atoms: _28  and  _29
REMARK   12  A    between atoms: _28  and  _31
REMARK   13  A    between atoms: _31  and  _32
REMARK   14  A    between atoms: _38  and  _40
REMARK   15  A    between atoms: _40  and  _41
REMARK   16  A    between atoms: _40  and  _43
REMARK   17  A    between atoms: _43  and  _44
REMARK   18  A    between atoms: _47  and  _49
REMARK   19  A    between atoms: _49  and  _50
REMARK   20  A    between atoms: _49  and  _52
REMARK   21  A    between atoms: _52  and  _53
REMARK   22  A    between atoms: _53  and  _54
REMARK   23  A    between atoms: _54  and  _55
REMARK   24  A    between atoms: _55  and  _56
REMARK   25  A    between atoms: _61  and  _62
REMARK   26  A    between atoms: _67  and  _69
REMARK   27  A    between atoms: _69  and  _70
REMARK   28  A    between atoms: _69  and  _72
REMARK   29  A    between atoms: _75  and  _77
REMARK   30  A    between atoms: _77  and  _78
REMARK   31  A    between atoms: _77  and  _80
REMARK   32  A    between atoms: _80  and  _81
REMARK   33  A    between atoms: _84  and  _86
REMARK   34  A    between atoms: _86  and  _87
REMARK   35  A    between atoms: _86  and  _89
REMARK   36  A    between atoms: _89  and  _90
REMARK   37  A    between atoms: _90  and  _91
REMARK   38  A    between atoms: _94  and  _96
REMARK   39  A    between atoms: _96  and  _97
REMARK   40  A    between atoms: _96  and  _99
REMARK   41  A    between atoms: _102  and  _104
REMARK   42  A    between atoms: _104  and  _105
REMARK   43  A    between atoms: _104  and  _107
REMARK   44  A    between atoms: _107  and  _108
REMARK   45  A    between atoms: _113  and  _114
REMARK   46  A    between atoms: _116  and  _118
REMARK   47  A    between atoms: _118  and  _119
REMARK   48  A    between atoms: _118  and  _121
REMARK   49  A    between atoms: _121  and  _122
REMARK   50  A    between atoms: _125  and  _127
REMARK   51  A    between atoms: _127  and  _128
REMARK   52  A    between atoms: _127  and  _130
REMARK   53  A    between atoms: _130  and  _131
REMARK   54  A    between atoms: _131  and  _132
REMARK   55  A    between atoms: _134  and  _136
REMARK   56  A    between atoms: _136  and  _137
REMARK   57  A    between atoms: _136  and  _139
REMARK   58  A    between atoms: _139  and  _140
REMARK   59  A    between atoms: _143  and  _145
REMARK   60  A    between atoms: _145  and  _146
REMARK   61  A    between atoms: _145  and  _148
REMARK   62  A    between atoms: _148  and  _149
REMARK   63  A    between atoms: _152  and  _154
REMARK   64  A    between atoms: _154  and  _155
REMARK   65  A    between atoms: _154  and  _157
REMARK   66  A    between atoms: _159  and  _161
REMARK   67  A    between atoms: _161  and  _162
REMARK   68  A    between atoms: _161  and  _164
REMARK   69  A    between atoms: _164  and  _165
REMARK   70  A    between atoms: _170  and  _172
REMARK   71  A    between atoms: _172  and  _173
REMARK   72  A    between atoms: _176  and  _178
REMARK   73  A    between atoms: _178  and  _179
REMARK   74  A    between atoms: _178  and  _181
REMARK   75  A    between atoms: _181  and  _182
REMARK   76  A    between atoms: _185  and  _187
REMARK   77  A    between atoms: _187  and  _188
REMARK   78  A    between atoms: _187  and  _190
REMARK   79  A    between atoms: _190  and  _191
REMARK   80  A    between atoms: _191  and  _192
REMARK   81  A    between atoms: _195  and  _197
REMARK   82  A    between atoms: _197  and  _198
REMARK   83  A    between atoms: _197  and  _200
REMARK   84  A    between atoms: _200  and  _201
REMARK   85  A    between atoms: _206  and  _207
REMARK   86  A    between atoms: _209  and  _211
REMARK   87  A    between atoms: _211  and  _212
REMARK   88  A    between atoms: _211  and  _214
REMARK   89  A    between atoms: _214  and  _215
REMARK   90  A    between atoms: _220  and  _222
REMARK   91  A    between atoms: _222  and  _223
REMARK   92  A    between atoms: _225  and  _227
REMARK   93  A    between atoms: _227  and  _228
REMARK   94  A    between atoms: _227  and  _230
REMARK   95  A    between atoms: _230  and  _231
REMARK   96  A    between atoms: _234  and  _236
REMARK   97  A    between atoms: _236  and  _237
REMARK   98  A    between atoms: _236  and  _239
REMARK   99  A    between atoms: _239  and  _240
REMARK  100  A    between atoms: _243  and  _245
REMARK  101  A    between atoms: _245  and  _246
REMARK  102  A    between atoms: _245  and  _248
REMARK  103  A    between atoms: _248  and  _249
REMARK  104  A    between atoms: _249  and  _250
REMARK  105  A    between atoms: _250  and  _251
REMARK  106  A    between atoms: _260  and  _262
REMARK  107  A    between atoms: _262  and  _263
REMARK                            x       y       z     vdW  Elec       q    Type
REMARK                         _______ _______ _______ _____ _____    ______ ____
ROOT
ATOM      1  O   HOH     1      29.301  41.618 -15.085  0.00  0.00    +0.000 OA
ENDROOT
TORSDOF 0
REMARK  Name = ../refined-set-2016/4qsu/4qsu_pocket.pdb
REMARK  107 active torsions:
REMARK  status: ('A' for Active; 'I' for Inactive)
REMARK    1  A    between atoms: _1  and  _3
REMARK    2  A    between atoms: _3  and  _4
REMARK    3  A    between atoms: _3  and  _6
REMARK    4  A    between atoms: _6  and  _7
REMARK    5  A    between atoms: _7  and  _8
REMARK    6  A    between atoms: _8  and  _9
REMARK    7  A    between atoms: _18  and  _20
REMARK    8  A    between atoms: _20  and  _21
REMARK    9  A    between atoms: _20  and  _23
REMARK   10  A    between atoms: _26  and  _28
REMARK   11  A    between atoms: _28  and  _29
REMARK   12  A    between atoms: _28  and  _31
REMARK   13  A    between atoms: _31  and  _32
REMARK   14  A    between atoms: _38  and  _40
REMARK   15  A    between atoms: _40  and  _41
REMARK   16  A    between atoms: _40  and  _43
REMARK   17  A    between atoms: _43  and  _44
REMARK   18  A    between atoms: _47  and  _49
REMARK   19  A    between atoms: _49  and  _50
REMARK   20  A    between atoms: _49  and  _52
REMARK   21  A    between atoms: _52  and  _53
REMARK   22  A    between atoms: _53  and  _54
REMARK   23  A    between atoms: _54  and  _55
REMARK   24  A    between atoms: _55  and  _56
REMARK   25  A    between atoms: _61  and  _62
REMARK   26  A    between atoms: _67  and  _69
REMARK   27  A    between atoms: _69  and  _70
REMARK   28  A    between atoms: _69  and  _72
REMARK   29  A    between atoms: _75  and  _77
REMARK   30  A    between atoms: _77  and  _78
REMARK   31  A    between atoms: _77  and  _80
REMARK   32  A    between atoms: _80  and  _81
REMARK   33  A    between atoms: _84  and  _86
REMARK   34  A    between atoms: _86  and  _87
REMARK   35  A    between atoms: _86  and  _89
REMARK   36  A    between atoms: _89  and  _90
REMARK   37  A    between atoms: _90  and  _91
REMARK   38  A    between atoms: _94  and  _96
REMARK   39  A    between atoms: _96  and  _97
REMARK   40  A    between atoms: _96  and  _99
REMARK   41  A    between atoms: _102  and  _104
REMARK   42  A    between atoms: _104  and  _105
REMARK   43  A    between atoms: _104  and  _107
REMARK   44  A    between atoms: _107  and  _108
REMARK   45  A    between atoms: _113  and  _114
REMARK   46  A    between atoms: _116  and  _118
REMARK   47  A    between atoms: _118  and  _119
REMARK   48  A    between atoms: _118  and  _121
REMARK   49  A    between atoms: _121  and  _122
REMARK   50  A    between atoms: _125  and  _127
REMARK   51  A    between atoms: _127  and  _128
REMARK   52  A    between atoms: _127  and  _130
REMARK   53  A    between atoms: _130  and  _131
REMARK   54  A    between atoms: _131  and  _132
REMARK   55  A    between atoms: _134  and  _136
REMARK   56  A    between atoms: _136  and  _137
REMARK   57  A    between atoms: _136  and  _139
REMARK   58  A    between atoms: _139  and  _140
REMARK   59  A    between atoms: _143  and  _145
REMARK   60  A    between atoms: _145  and  _146
REMARK   61  A    between atoms: _145  and  _148
REMARK   62  A    between atoms: _148  and  _149
REMARK   63  A    between atoms: _152  and  _154
REMARK   64  A    between atoms: _154  and  _155
REMARK   65  A    between atoms: _154  and  _157
REMARK   66  A    between atoms: _159  and  _161
REMARK   67  A    between atoms: _161  and  _162
REMARK   68  A    between atoms: _161  and  _164
REMARK   69  A    between atoms: _164  and  _165
REMARK   70  A    between atoms: _170  and  _172
REMARK   71  A    between atoms: _172  and  _173
REMARK   72  A    between atoms: _176  and  _178
REMARK   73  A    between atoms: _178  and  _179
REMARK   74  A    between atoms: _178  and  _181
REMARK   75  A    between atoms: _181  and  _182
REMARK   76  A    between atoms: _185  and  _187
REMARK   77  A    between atoms: _187  and  _188
REMARK   78  A    between atoms: _187  and  _190
REMARK   79  A    between atoms: _190  and  _191
REMARK   80  A    between atoms: _191  and  _192
REMARK   81  A    between atoms: _195  and  _197
REMARK   82  A    between atoms: _197  and  _198
REMARK   83  A    between atoms: _197  and  _200
REMARK   84  A    between atoms: _200  and  _201
REMARK   85  A    between atoms: _206  and  _207
REMARK   86  A    between atoms: _209  and  _211
REMARK   87  A    between atoms: _211  and  _212
REMARK   88  A    between atoms: _211  and  _214
REMARK   89  A    between atoms: _214  and  _215
REMARK   90  A    between atoms: _220  and  _222
REMARK   91  A    between atoms: _222  and  _223
REMARK   92  A    between atoms: _225  and  _227
REMARK   93  A    between atoms: _227  and  _228
REMARK   94  A    between atoms: _227  and  _230
REMARK   95  A    between atoms: _230  and  _231
REMARK   96  A    between atoms: _234  and  _236
REMARK   97  A    between atoms: _236  and  _237
REMARK   98  A    between atoms: _236  and  _239
REMARK   99  A    between atoms: _239  and  _240
REMARK  100  A    between atoms: _243  and  _245
REMARK  101  A    between atoms: _245  and  _246
REMARK  102  A    between atoms: _245  and  _248
REMARK  103  A    between atoms: _248  and  _249
REMARK  104  A    between atoms: _249  and  _250
REMARK  105  A    between atoms: _250  and  _251
REMARK  106  A    between atoms: _260  and  _262
REMARK  107  A    between atoms: _262  and  _263
REMARK                            x       y       z     vdW  Elec       q    Type
REMARK                         _______ _______ _______ _____ _____    ______ ____
ROOT
ATOM      1  O   HOH     1      19.999  42.332  -9.684  0.00  0.00    +0.000 OA
ENDROOT
TORSDOF 0
REMARK  Name = ../refined-set-2016/4qsu/4qsu_pocket.pdb
REMARK  107 active torsions:
REMARK  status: ('A' for Active; 'I' for Inactive)
REMARK    1  A    between atoms: _1  and  _3
REMARK    2  A    between atoms: _3  and  _4
REMARK    3  A    between atoms: _3  and  _6
REMARK    4  A    between atoms: _6  and  _7
REMARK    5  A    between atoms: _7  and  _8
REMARK    6  A    between atoms: _8  and  _9
REMARK    7  A    between atoms: _18  and  _20
REMARK    8  A    between atoms: _20  and  _21
REMARK    9  A    between atoms: _20  and  _23
REMARK   10  A    between atoms: _26  and  _28
REMARK   11  A    between atoms: _28  and  _29
REMARK   12  A    between atoms: _28  and  _31
REMARK   13  A    between atoms: _31  and  _32
REMARK   14  A    between atoms: _38  and  _40
REMARK   15  A    between atoms: _40  and  _41
REMARK   16  A    between atoms: _40  and  _43
REMARK   17  A    between atoms: _43  and  _44
REMARK   18  A    between atoms: _47  and  _49
REMARK   19  A    between atoms: _49  and  _50
REMARK   20  A    between atoms: _49  and  _52
REMARK   21  A    between atoms: _52  and  _53
REMARK   22  A    between atoms: _53  and  _54
REMARK   23  A    between atoms: _54  and  _55
REMARK   24  A    between atoms: _55  and  _56
REMARK   25  A    between atoms: _61  and  _62
REMARK   26  A    between atoms: _67  and  _69
REMARK   27  A    between atoms: _69  and  _70
REMARK   28  A    between atoms: _69  and  _72
REMARK   29  A    between atoms: _75  and  _77
REMARK   30  A    between atoms: _77  and  _78
REMARK   31  A    between atoms: _77  and  _80
REMARK   32  A    between atoms: _80  and  _81
REMARK   33  A    between atoms: _84  and  _86
REMARK   34  A    between atoms: _86  and  _87
REMARK   35  A    between atoms: _86  and  _89
REMARK   36  A    between atoms: _89  and  _90
REMARK   37  A    between atoms: _90  and  _91
REMARK   38  A    between atoms: _94  and  _96
REMARK   39  A    between atoms: _96  and  _97
REMARK   40  A    between atoms: _96  and  _99
REMARK   41  A    between atoms: _102  and  _104
REMARK   42  A    between atoms: _104  and  _105
REMARK   43  A    between atoms: _104  and  _107
REMARK   44  A    between atoms: _107  and  _108
REMARK   45  A    between atoms: _113  and  _114
REMARK   46  A    between atoms: _116  and  _118
REMARK   47  A    between atoms: _118  and  _119
REMARK   48  A    between atoms: _118  and  _121
REMARK   49  A    between atoms: _121  and  _122
REMARK   50  A    between atoms: _125  and  _127
REMARK   51  A    between atoms: _127  and  _128
REMARK   52  A    between atoms: _127  and  _130
REMARK   53  A    between atoms: _130  and  _131
REMARK   54  A    between atoms: _131  and  _132
REMARK   55  A    between atoms: _134  and  _136
REMARK   56  A    between atoms: _136  and  _137
REMARK   57  A    between atoms: _136  and  _139
REMARK   58  A    between atoms: _139  and  _140
REMARK   59  A    between atoms: _143  and  _145
REMARK   60  A    between atoms: _145  and  _146
REMARK   61  A    between atoms: _145  and  _148
REMARK   62  A    between atoms: _148  and  _149
REMARK   63  A    between atoms: _152  and  _154
REMARK   64  A    between atoms: _154  and  _155
REMARK   65  A    between atoms: _154  and  _157
REMARK   66  A    between atoms: _159  and  _161
REMARK   67  A    between atoms: _161  and  _162
REMARK   68  A    between atoms: _161  and  _164
REMARK   69  A    between atoms: _164  and  _165
REMARK   70  A    between atoms: _170  and  _172
REMARK   71  A    between atoms: _172  and  _173
REMARK   72  A    between atoms: _176  and  _178
REMARK   73  A    between atoms: _178  and  _179
REMARK   74  A    between atoms: _178  and  _181
REMARK   75  A    between atoms: _181  and  _182
REMARK   76  A    between atoms: _185  and  _187
REMARK   77  A    between atoms: _187  and  _188
REMARK   78  A    between atoms: _187  and  _190
REMARK   79  A    between atoms: _190  and  _191
REMARK   80  A    between atoms: _191  and  _192
REMARK   81  A    between atoms: _195  and  _197
REMARK   82  A    between atoms: _197  and  _198
REMARK   83  A    between atoms: _197  and  _200
REMARK   84  A    between atoms: _200  and  _201
REMARK   85  A    between atoms: _206  and  _207
REMARK   86  A    between atoms: _209  and  _211
REMARK   87  A    between atoms: _211  and  _212
REMARK   88  A    between atoms: _211  and  _214
REMARK   89  A    between atoms: _214  and  _215
REMARK   90  A    between atoms: _220  and  _222
REMARK   91  A    between atoms: _222  and  _223
REMARK   92  A    between atoms: _225  and  _227
REMARK   93  A    between atoms: _227  and  _228
REMARK   94  A    between atoms: _227  and  _230
REMARK   95  A    between atoms: _230  and  _231
REMARK   96  A    between atoms: _234  and  _236
REMARK   97  A    between atoms: _236  and  _237
REMARK   98  A    between atoms: _236  and  _239
REMARK   99  A    between atoms: _239  and  _240
REMARK  100  A    between atoms: _243  and  _245
REMARK  101  A    between atoms: _245  and  _246
REMARK  102  A    between atoms: _245  and  _248
REMARK  103  A    between atoms: _248  and  _249
REMARK  104  A    between atoms: _249  and  _250
REMARK  105  A    between atoms: _250  and  _251
REMARK  106  A    between atoms: _260  and  _262
REMARK  107  A    between atoms: _262  and  _263
REMARK                            x       y       z     vdW  Elec       q    Type
REMARK                         _______ _______ _______ _____ _____    ______ ____
ROOT
ATOM      1  O   HOH     1      20.919  46.578  -7.889  0.00  0.00    +0.000 OA
ENDROOT
TORSDOF 0
REMARK  Name = ../refined-set-2016/4qsu/4qsu_pocket.pdb
REMARK  107 active torsions:
REMARK  status: ('A' for Active; 'I' for Inactive)
REMARK    1  A    between atoms: _1  and  _3
REMARK    2  A    between atoms: _3  and  _4
REMARK    3  A    between atoms: _3  and  _6
REMARK    4  A    between atoms: _6  and  _7
REMARK    5  A    between atoms: _7  and  _8
REMARK    6  A    between atoms: _8  and  _9
REMARK    7  A    between atoms: _18  and  _20
REMARK    8  A    between atoms: _20  and  _21
REMARK    9  A    between atoms: _20  and  _23
REMARK   10  A    between atoms: _26  and  _28
REMARK   11  A    between atoms: _28  and  _29
REMARK   12  A    between atoms: _28  and  _31
REMARK   13  A    between atoms: _31  and  _32
REMARK   14  A    between atoms: _38  and  _40
REMARK   15  A    between atoms: _40  and  _41
REMARK   16  A    between atoms: _40  and  _43
REMARK   17  A    between atoms: _43  and  _44
REMARK   18  A    between atoms: _47  and  _49
REMARK   19  A    between atoms: _49  and  _50
REMARK   20  A    between atoms: _49  and  _52
REMARK   21  A    between atoms: _52  and  _53
REMARK   22  A    between atoms: _53  and  _54
REMARK   23  A    between atoms: _54  and  _55
REMARK   24  A    between atoms: _55  and  _56
REMARK   25  A    between atoms: _61  and  _62
REMARK   26  A    between atoms: _67  and  _69
REMARK   27  A    between atoms: _69  and  _70
REMARK   28  A    between atoms: _69  and  _72
REMARK   29  A    between atoms: _75  and  _77
REMARK   30  A    between atoms: _77  and  _78
REMARK   31  A    between atoms: _77  and  _80
REMARK   32  A    between atoms: _80  and  _81
REMARK   33  A    between atoms: _84  and  _86
REMARK   34  A    between atoms: _86  and  _87
REMARK   35  A    between atoms: _86  and  _89
REMARK   36  A    between atoms: _89  and  _90
REMARK   37  A    between atoms: _90  and  _91
REMARK   38  A    between atoms: _94  and  _96
REMARK   39  A    between atoms: _96  and  _97
REMARK   40  A    between atoms: _96  and  _99
REMARK   41  A    between atoms: _102  and  _104
REMARK   42  A    between atoms: _104  and  _105
REMARK   43  A    between atoms: _104  and  _107
REMARK   44  A    between atoms: _107  and  _108
REMARK   45  A    between atoms: _113  and  _114
REMARK   46  A    between atoms: _116  and  _118
REMARK   47  A    between atoms: _118  and  _119
REMARK   48  A    between atoms: _118  and  _121
REMARK   49  A    between atoms: _121  and  _122
REMARK   50  A    between atoms: _125  and  _127
REMARK   51  A    between atoms: _127  and  _128
REMARK   52  A    between atoms: _127  and  _130
REMARK   53  A    between atoms: _130  and  _131
REMARK   54  A    between atoms: _131  and  _132
REMARK   55  A    between atoms: _134  and  _136
REMARK   56  A    between atoms: _136  and  _137
REMARK   57  A    between atoms: _136  and  _139
REMARK   58  A    between atoms: _139  and  _140
REMARK   59  A    between atoms: _143  and  _145
REMARK   60  A    between atoms: _145  and  _146
REMARK   61  A    between atoms: _145  and  _148
REMARK   62  A    between atoms: _148  and  _149
REMARK   63  A    between atoms: _152  and  _154
REMARK   64  A    between atoms: _154  and  _155
REMARK   65  A    between atoms: _154  and  _157
REMARK   66  A    between atoms: _159  and  _161
REMARK   67  A    between atoms: _161  and  _162
REMARK   68  A    between atoms: _161  and  _164
REMARK   69  A    between atoms: _164  and  _165
REMARK   70  A    between atoms: _170  and  _172
REMARK   71  A    between atoms: _172  and  _173
REMARK   72  A    between atoms: _176  and  _178
REMARK   73  A    between atoms: _178  and  _179
REMARK   74  A    between atoms: _178  and  _181
REMARK   75  A    between atoms: _181  and  _182
REMARK   76  A    between atoms: _185  and  _187
REMARK   77  A    between atoms: _187  and  _188
REMARK   78  A    between atoms: _187  and  _190
REMARK   79  A    between atoms: _190  and  _191
REMARK   80  A    between atoms: _191  and  _192
REMARK   81  A    between atoms: _195  and  _197
REMARK   82  A    between atoms: _197  and  _198
REMARK   83  A    between atoms: _197  and  _200
REMARK   84  A    between atoms: _200  and  _201
REMARK   85  A    between atoms: _206  and  _207
REMARK   86  A    between atoms: _209  and  _211
REMARK   87  A    between atoms: _211  and  _212
REMARK   88  A    between atoms: _211  and  _214
REMARK   89  A    between atoms: _214  and  _215
REMARK   90  A    between atoms: _220  and  _222
REMARK   91  A    between atoms: _222  and  _223
REMARK   92  A    between atoms: _225  and  _227
REMARK   93  A    between atoms: _227  and  _228
REMARK   94  A    between atoms: _227  and  _230
REMARK   95  A    between atoms: _230  and  _231
REMARK   96  A    between atoms: _234  and  _236
REMARK   97  A    between atoms: _236  and  _237
REMARK   98  A    between atoms: _236  and  _239
REMARK   99  A    between atoms: _239  and  _240
REMARK  100  A    between atoms: _243  and  _245
REMARK  101  A    between atoms: _245  and  _246
REMARK  102  A    between atoms: _245  and  _248
REMARK  103  A    between atoms: _248  and  _249
REMARK  104  A    between atoms: _249  and  _250
REMARK  105  A    between atoms: _250  and  _251
REMARK  106  A    between atoms: _260  and  _262
REMARK  107  A    between atoms: _262  and  _263
REMARK                            x       y       z     vdW  Elec       q    Type
REMARK                         _______ _______ _______ _____ _____    ______ ____
ROOT
ATOM      1  O   HOH     1      28.323  47.105  -3.309  0.00  0.00    +0.000 OA
ENDROOT
TORSDOF 0
REMARK  Name = ../refined-set-2016/4qsu/4qsu_pocket.pdb
REMARK  107 active torsions:
REMARK  status: ('A' for Active; 'I' for Inactive)
REMARK    1  A    between atoms: _1  and  _3
REMARK    2  A    between atoms: _3  and  _4
REMARK    3  A    between atoms: _3  and  _6
REMARK    4  A    between atoms: _6  and  _7
REMARK    5  A    between atoms: _7  and  _8
REMARK    6  A    between atoms: _8  and  _9
REMARK    7  A    between atoms: _18  and  _20
REMARK    8  A    between atoms: _20  and  _21
REMARK    9  A    between atoms: _20  and  _23
REMARK   10  A    between atoms: _26  and  _28
REMARK   11  A    between atoms: _28  and  _29
REMARK   12  A    between atoms: _28  and  _31
REMARK   13  A    between atoms: _31  and  _32
REMARK   14  A    between atoms: _38  and  _40
REMARK   15  A    between atoms: _40  and  _41
REMARK   16  A    between atoms: _40  and  _43
REMARK   17  A    between atoms: _43  and  _44
REMARK   18  A    between atoms: _47  and  _49
REMARK   19  A    between atoms: _49  and  _50
REMARK   20  A    between atoms: _49  and  _52
REMARK   21  A    between atoms: _52  and  _53
REMARK   22  A    between atoms: _53  and  _54
REMARK   23  A    between atoms: _54  and  _55
REMARK   24  A    between atoms: _55  and  _56
REMARK   25  A    between atoms: _61  and  _62
REMARK   26  A    between atoms: _67  and  _69
REMARK   27  A    between atoms: _69  and  _70
REMARK   28  A    between atoms: _69  and  _72
REMARK   29  A    between atoms: _75  and  _77
REMARK   30  A    between atoms: _77  and  _78
REMARK   31  A    between atoms: _77  and  _80
REMARK   32  A    between atoms: _80  and  _81
REMARK   33  A    between atoms: _84  and  _86
REMARK   34  A    between atoms: _86  and  _87
REMARK   35  A    between atoms: _86  and  _89
REMARK   36  A    between atoms: _89  and  _90
REMARK   37  A    between atoms: _90  and  _91
REMARK   38  A    between atoms: _94  and  _96
REMARK   39  A    between atoms: _96  and  _97
REMARK   40  A    between atoms: _96  and  _99
REMARK   41  A    between atoms: _102  and  _104
REMARK   42  A    between atoms: _104  and  _105
REMARK   43  A    between atoms: _104  and  _107
REMARK   44  A    between atoms: _107  and  _108
REMARK   45  A    between atoms: _113  and  _114
REMARK   46  A    between atoms: _116  and  _118
REMARK   47  A    between atoms: _118  and  _119
REMARK   48  A    between atoms: _118  and  _121
REMARK   49  A    between atoms: _121  and  _122
REMARK   50  A    between atoms: _125  and  _127
REMARK   51  A    between atoms: _127  and  _128
REMARK   52  A    between atoms: _127  and  _130
REMARK   53  A    between atoms: _130  and  _131
REMARK   54  A    between atoms: _131  and  _132
REMARK   55  A    between atoms: _134  and  _136
REMARK   56  A    between atoms: _136  and  _137
REMARK   57  A    between atoms: _136  and  _139
REMARK   58  A    between atoms: _139  and  _140
REMARK   59  A    between atoms: _143  and  _145
REMARK   60  A    between atoms: _145  and  _146
REMARK   61  A    between atoms: _145  and  _148
REMARK   62  A    between atoms: _148  and  _149
REMARK   63  A    between atoms: _152  and  _154
REMARK   64  A    between atoms: _154  and  _155
REMARK   65  A    between atoms: _154  and  _157
REMARK   66  A    between atoms: _159  and  _161
REMARK   67  A    between atoms: _161  and  _162
REMARK   68  A    between atoms: _161  and  _164
REMARK   69  A    between atoms: _164  and  _165
REMARK   70  A    between atoms: _170  and  _172
REMARK   71  A    between atoms: _172  and  _173
REMARK   72  A    between atoms: _176  and  _178
REMARK   73  A    between atoms: _178  and  _179
REMARK   74  A    between atoms: _178  and  _181
REMARK   75  A    between atoms: _181  and  _182
REMARK   76  A    between atoms: _185  and  _187
REMARK   77  A    between atoms: _187  and  _188
REMARK   78  A    between atoms: _187  and  _190
REMARK   79  A    between atoms: _190  and  _191
REMARK   80  A    between atoms: _191  and  _192
REMARK   81  A    between atoms: _195  and  _197
REMARK   82  A    between atoms: _197  and  _198
REMARK   83  A    between atoms: _197  and  _200
REMARK   84  A    between atoms: _200  and  _201
REMARK   85  A    between atoms: _206  and  _207
REMARK   86  A    between atoms: _209  and  _211
REMARK   87  A    between atoms: _211  and  _212
REMARK   88  A    between atoms: _211  and  _214
REMARK   89  A    between atoms: _214  and  _215
REMARK   90  A    between atoms: _220  and  _222
REMARK   91  A    between atoms: _222  and  _223
REMARK   92  A    between atoms: _225  and  _227
REMARK   93  A    between atoms: _227  and  _228
REMARK   94  A    between atoms: _227  and  _230
REMARK   95  A    between atoms: _230  and  _231
REMARK   96  A    between atoms: _234  and  _236
REMARK   97  A    between atoms: _236  and  _237
REMARK   98  A    between atoms: _236  and  _239
REMARK   99  A    between atoms: _239  and  _240
REMARK  100  A    between atoms: _243  and  _245
REMARK  101  A    between atoms: _245  and  _246
REMARK  102  A    between atoms: _245  and  _248
REMARK  103  A    between atoms: _248  and  _249
REMARK  104  A    between atoms: _249  and  _250
REMARK  105  A    between atoms: _250  and  _251
REMARK  106  A    between atoms: _260  and  _262
REMARK  107  A    between atoms: _262  and  _263
REMARK                            x       y       z     vdW  Elec       q    Type
REMARK                         _______ _______ _______ _____ _____    ______ ____
ROOT
ATOM      1  O   HOH     1      29.584  39.528 -17.841  0.00  0.00    +0.000 OA
ENDROOT
TORSDOF 0
REMARK  Name = ../refined-set-2016/4qsu/4qsu_pocket.pdb
REMARK  107 active torsions:
REMARK  status: ('A' for Active; 'I' for Inactive)
REMARK    1  A    between atoms: _1  and  _3
REMARK    2  A    between atoms: _3  and  _4
REMARK    3  A    between atoms: _3  and  _6
REMARK    4  A    between atoms: _6  and  _7
REMARK    5  A    between atoms: _7  and  _8
REMARK    6  A    between atoms: _8  and  _9
REMARK    7  A    between atoms: _18  and  _20
REMARK    8  A    between atoms: _20  and  _21
REMARK    9  A    between atoms: _20  and  _23
REMARK   10  A    between atoms: _26  and  _28
REMARK   11  A    between atoms: _28  and  _29
REMARK   12  A    between atoms: _28  and  _31
REMARK   13  A    between atoms: _31  and  _32
REMARK   14  A    between atoms: _38  and  _40
REMARK   15  A    between atoms: _40  and  _41
REMARK   16  A    between atoms: _40  and  _43
REMARK   17  A    between atoms: _43  and  _44
REMARK   18  A    between atoms: _47  and  _49
REMARK   19  A    between atoms: _49  and  _50
REMARK   20  A    between atoms: _49  and  _52
REMARK   21  A    between atoms: _52  and  _53
REMARK   22  A    between atoms: _53  and  _54
REMARK   23  A    between atoms: _54  and  _55
REMARK   24  A    between atoms: _55  and  _56
REMARK   25  A    between atoms: _61  and  _62
REMARK   26  A    between atoms: _67  and  _69
REMARK   27  A    between atoms: _69  and  _70
REMARK   28  A    between atoms: _69  and  _72
REMARK   29  A    between atoms: _75  and  _77
REMARK   30  A    between atoms: _77  and  _78
REMARK   31  A    between atoms: _77  and  _80
REMARK   32  A    between atoms: _80  and  _81
REMARK   33  A    between atoms: _84  and  _86
REMARK   34  A    between atoms: _86  and  _87
REMARK   35  A    between atoms: _86  and  _89
REMARK   36  A    between atoms: _89  and  _90
REMARK   37  A    between atoms: _90  and  _91
REMARK   38  A    between atoms: _94  and  _96
REMARK   39  A    between atoms: _96  and  _97
REMARK   40  A    between atoms: _96  and  _99
REMARK   41  A    between atoms: _102  and  _104
REMARK   42  A    between atoms: _104  and  _105
REMARK   43  A    between atoms: _104  and  _107
REMARK   44  A    between atoms: _107  and  _108
REMARK   45  A    between atoms: _113  and  _114
REMARK   46  A    between atoms: _116  and  _118
REMARK   47  A    between atoms: _118  and  _119
REMARK   48  A    between atoms: _118  and  _121
REMARK   49  A    between atoms: _121  and  _122
REMARK   50  A    between atoms: _125  and  _127
REMARK   51  A    between atoms: _127  and  _128
REMARK   52  A    between atoms: _127  and  _130
REMARK   53  A    between atoms: _130  and  _131
REMARK   54  A    between atoms: _131  and  _132
REMARK   55  A    between atoms: _134  and  _136
REMARK   56  A    between atoms: _136  and  _137
REMARK   57  A    between atoms: _136  and  _139
REMARK   58  A    between atoms: _139  and  _140
REMARK   59  A    between atoms: _143  and  _145
REMARK   60  A    between atoms: _145  and  _146
REMARK   61  A    between atoms: _145  and  _148
REMARK   62  A    between atoms: _148  and  _149
REMARK   63  A    between atoms: _152  and  _154
REMARK   64  A    between atoms: _154  and  _155
REMARK   65  A    between atoms: _154  and  _157
REMARK   66  A    between atoms: _159  and  _161
REMARK   67  A    between atoms: _161  and  _162
REMARK   68  A    between atoms: _161  and  _164
REMARK   69  A    between atoms: _164  and  _165
REMARK   70  A    between atoms: _170  and  _172
REMARK   71  A    between atoms: _172  and  _173
REMARK   72  A    between atoms: _176  and  _178
REMARK   73  A    between atoms: _178  and  _179
REMARK   74  A    between atoms: _178  and  _181
REMARK   75  A    between atoms: _181  and  _182
REMARK   76  A    between atoms: _185  and  _187
REMARK   77  A    between atoms: _187  and  _188
REMARK   78  A    between atoms: _187  and  _190
REMARK   79  A    between atoms: _190  and  _191
REMARK   80  A    between atoms: _191  and  _192
REMARK   81  A    between atoms: _195  and  _197
REMARK   82  A    between atoms: _197  and  _198
REMARK   83  A    between atoms: _197  and  _200
REMARK   84  A    between atoms: _200  and  _201
REMARK   85  A    between atoms: _206  and  _207
REMARK   86  A    between atoms: _209  and  _211
REMARK   87  A    between atoms: _211  and  _212
REMARK   88  A    between atoms: _211  and  _214
REMARK   89  A    between atoms: _214  and  _215
REMARK   90  A    between atoms: _220  and  _222
REMARK   91  A    between atoms: _222  and  _223
REMARK   92  A    between atoms: _225  and  _227
REMARK   93  A    between atoms: _227  and  _228
REMARK   94  A    between atoms: _227  and  _230
REMARK   95  A    between atoms: _230  and  _231
REMARK   96  A    between atoms: _234  and  _236
REMARK   97  A    between atoms: _236  and  _237
REMARK   98  A    between atoms: _236  and  _239
REMARK   99  A    between atoms: _239  and  _240
REMARK  100  A    between atoms: _243  and  _245
REMARK  101  A    between atoms: _245  and  _246
REMARK  102  A    between atoms: _245  and  _248
REMARK  103  A    between atoms: _248  and  _249
REMARK  104  A    between atoms: _249  and  _250
REMARK  105  A    between atoms: _250  and  _251
REMARK  106  A    between atoms: _260  and  _262
REMARK  107  A    between atoms: _262  and  _263
REMARK                            x       y       z     vdW  Elec       q    Type
REMARK                         _______ _______ _______ _____ _____    ______ ____
ROOT
ATOM      1  O   HOH     1      32.633  40.002 -16.069  0.00  0.00    +0.000 OA
ENDROOT
TORSDOF 0
REMARK  Name = ../refined-set-2016/4qsu/4qsu_pocket.pdb
REMARK  107 active torsions:
REMARK  status: ('A' for Active; 'I' for Inactive)
REMARK    1  A    between atoms: _1  and  _3
REMARK    2  A    between atoms: _3  and  _4
REMARK    3  A    between atoms: _3  and  _6
REMARK    4  A    between atoms: _6  and  _7
REMARK    5  A    between atoms: _7  and  _8
REMARK    6  A    between atoms: _8  and  _9
REMARK    7  A    between atoms: _18  and  _20
REMARK    8  A    between atoms: _20  and  _21
REMARK    9  A    between atoms: _20  and  _23
REMARK   10  A    between atoms: _26  and  _28
REMARK   11  A    between atoms: _28  and  _29
REMARK   12  A    between atoms: _28  and  _31
REMARK   13  A    between atoms: _31  and  _32
REMARK   14  A    between atoms: _38  and  _40
REMARK   15  A    between atoms: _40  and  _41
REMARK   16  A    between atoms: _40  and  _43
REMARK   17  A    between atoms: _43  and  _44
REMARK   18  A    between atoms: _47  and  _49
REMARK   19  A    between atoms: _49  and  _50
REMARK   20  A    between atoms: _49  and  _52
REMARK   21  A    between atoms: _52  and  _53
REMARK   22  A    between atoms: _53  and  _54
REMARK   23  A    between atoms: _54  and  _55
REMARK   24  A    between atoms: _55  and  _56
REMARK   25  A    between atoms: _61  and  _62
REMARK   26  A    between atoms: _67  and  _69
REMARK   27  A    between atoms: _69  and  _70
REMARK   28  A    between atoms: _69  and  _72
REMARK   29  A    between atoms: _75  and  _77
REMARK   30  A    between atoms: _77  and  _78
REMARK   31  A    between atoms: _77  and  _80
REMARK   32  A    between atoms: _80  and  _81
REMARK   33  A    between atoms: _84  and  _86
REMARK   34  A    between atoms: _86  and  _87
REMARK   35  A    between atoms: _86  and  _89
REMARK   36  A    between atoms: _89  and  _90
REMARK   37  A    between atoms: _90  and  _91
REMARK   38  A    between atoms: _94  and  _96
REMARK   39  A    between atoms: _96  and  _97
REMARK   40  A    between atoms: _96  and  _99
REMARK   41  A    between atoms: _102  and  _104
REMARK   42  A    between atoms: _104  and  _105
REMARK   43  A    between atoms: _104  and  _107
REMARK   44  A    between atoms: _107  and  _108
REMARK   45  A    between atoms: _113  and  _114
REMARK   46  A    between atoms: _116  and  _118
REMARK   47  A    between atoms: _118  and  _119
REMARK   48  A    between atoms: _118  and  _121
REMARK   49  A    between atoms: _121  and  _122
REMARK   50  A    between atoms: _125  and  _127
REMARK   51  A    between atoms: _127  and  _128
REMARK   52  A    between atoms: _127  and  _130
REMARK   53  A    between atoms: _130  and  _131
REMARK   54  A    between atoms: _131  and  _132
REMARK   55  A    between atoms: _134  and  _136
REMARK   56  A    between atoms: _136  and  _137
REMARK   57  A    between atoms: _136  and  _139
REMARK   58  A    between atoms: _139  and  _140
REMARK   59  A    between atoms: _143  and  _145
REMARK   60  A    between atoms: _145  and  _146
REMARK   61  A    between atoms: _145  and  _148
REMARK   62  A    between atoms: _148  and  _149
REMARK   63  A    between atoms: _152  and  _154
REMARK   64  A    between atoms: _154  and  _155
REMARK   65  A    between atoms: _154  and  _157
REMARK   66  A    between atoms: _159  and  _161
REMARK   67  A    between atoms: _161  and  _162
REMARK   68  A    between atoms: _161  and  _164
REMARK   69  A    between atoms: _164  and  _165
REMARK   70  A    between atoms: _170  and  _172
REMARK   71  A    between atoms: _172  and  _173
REMARK   72  A    between atoms: _176  and  _178
REMARK   73  A    between atoms: _178  and  _179
REMARK   74  A    between atoms: _178  and  _181
REMARK   75  A    between atoms: _181  and  _182
REMARK   76  A    between atoms: _185  and  _187
REMARK   77  A    between atoms: _187  and  _188
REMARK   78  A    between atoms: _187  and  _190
REMARK   79  A    between atoms: _190  and  _191
REMARK   80  A    between atoms: _191  and  _192
REMARK   81  A    between atoms: _195  and  _197
REMARK   82  A    between atoms: _197  and  _198
REMARK   83  A    between atoms: _197  and  _200
REMARK   84  A    between atoms: _200  and  _201
REMARK   85  A    between atoms: _206  and  _207
REMARK   86  A    between atoms: _209  and  _211
REMARK   87  A    between atoms: _211  and  _212
REMARK   88  A    between atoms: _211  and  _214
REMARK   89  A    between atoms: _214  and  _215
REMARK   90  A    between atoms: _220  and  _222
REMARK   91  A    between atoms: _222  and  _223
REMARK   92  A    between atoms: _225  and  _227
REMARK   93  A    between atoms: _227  and  _228
REMARK   94  A    between atoms: _227  and  _230
REMARK   95  A    between atoms: _230  and  _231
REMARK   96  A    between atoms: _234  and  _236
REMARK   97  A    between atoms: _236  and  _237
REMARK   98  A    between atoms: _236  and  _239
REMARK   99  A    between atoms: _239  and  _240
REMARK  100  A    between atoms: _243  and  _245
REMARK  101  A    between atoms: _245  and  _246
REMARK  102  A    between atoms: _245  and  _248
REMARK  103  A    between atoms: _248  and  _249
REMARK  104  A    between atoms: _249  and  _250
REMARK  105  A    between atoms: _250  and  _251
REMARK  106  A    between atoms: _260  and  _262
REMARK  107  A    between atoms: _262  and  _263
REMARK                            x       y       z     vdW  Elec       q    Type
REMARK                         _______ _______ _______ _____ _____    ______ ____
ROOT
ATOM      1  O   HOH     1      29.937  44.438  -8.602  0.00  0.00    +0.000 OA
ENDROOT
TORSDOF 0
