REMARK  Name = ../refined-set-2016/1rtf/1rtf_pocket.pdb
REMARK  118 active torsions:
REMARK  status: ('A' for Active; 'I' for Inactive)
REMARK    1  A    between atoms: _1  and  _3
REMARK    2  A    between atoms: _3  and  _4
REMARK    3  A    between atoms: _3  and  _6
REMARK    4  A    between atoms: _6  and  _7
REMARK    5  A    between atoms: _7  and  _8
REMARK    6  A    between atoms: _8  and  _9
REMARK    7  A    between atoms: _9  and  _10
REMARK    8  A    between atoms: _14  and  _16
REMARK    9  A    between atoms: _16  and  _17
REMARK   10  A    between atoms: _16  and  _19
REMARK   11  A    between atoms: _19  and  _20
REMARK   12  A    between atoms: _25  and  _27
REMARK   13  A    between atoms: _27  and  _28
REMARK   14  A    between atoms: _27  and  _30
REMARK   15  A    between atoms: _30  and  _31
REMARK   16  A    between atoms: _36  and  _37
REMARK   17  A    between atoms: _39  and  _41
REMARK   18  A    between atoms: _41  and  _42
REMARK   19  A    between atoms: _41  and  _44
REMARK   20  A    between atoms: _44  and  _45
REMARK   21  A    between atoms: _48  and  _50
REMARK   22  A    between atoms: _50  and  _51
REMARK   23  A    between atoms: _50  and  _53
REMARK   24  A    between atoms: _53  and  _54
REMARK   25  A    between atoms: _57  and  _59
REMARK   26  A    between atoms: _59  and  _60
REMARK   27  A    between atoms: _59  and  _62
REMARK   28  A    between atoms: _62  and  _63
REMARK   29  A    between atoms: _63  and  _64
REMARK   30  A    between atoms: _64  and  _65
REMARK   31  A    between atoms: _65  and  _66
REMARK   32  A    between atoms: _70  and  _72
REMARK   33  A    between atoms: _72  and  _73
REMARK   34  A    between atoms: _76  and  _78
REMARK   35  A    between atoms: _78  and  _79
REMARK   36  A    between atoms: _82  and  _84
REMARK   37  A    between atoms: _84  and  _85
REMARK   38  A    between atoms: _84  and  _87
REMARK   39  A    between atoms: _87  and  _88
REMARK   40  A    between atoms: _93  and  _95
REMARK   41  A    between atoms: _95  and  _96
REMARK   42  A    between atoms: _95  and  _98
REMARK   43  A    between atoms: _98  and  _99
REMARK   44  A    between atoms: _102  and  _104
REMARK   45  A    between atoms: _104  and  _105
REMARK   46  A    between atoms: _108  and  _110
REMARK   47  A    between atoms: _110  and  _111
REMARK   48  A    between atoms: _110  and  _113
REMARK   49  A    between atoms: _113  and  _114
REMARK   50  A    between atoms: _114  and  _226
REMARK   51  A    between atoms: _115  and  _117
REMARK   52  A    between atoms: _117  and  _118
REMARK   53  A    between atoms: _117  and  _120
REMARK   54  A    between atoms: _120  and  _121
REMARK   55  A    between atoms: _121  and  _122
REMARK   56  A    between atoms: _127  and  _129
REMARK   57  A    between atoms: _129  and  _130
REMARK   58  A    between atoms: _132  and  _134
REMARK   59  A    between atoms: _134  and  _135
REMARK   60  A    between atoms: _134  and  _137
REMARK   61  A    between atoms: _137  and  _138
REMARK   62  A    between atoms: _141  and  _143
REMARK   63  A    between atoms: _143  and  _144
REMARK   64  A    between atoms: _143  and  _146
REMARK   65  A    between atoms: _146  and  _147
REMARK   66  A    between atoms: _149  and  _151
REMARK   67  A    between atoms: _151  and  _152
REMARK   68  A    between atoms: _154  and  _156
REMARK   69  A    between atoms: _156  and  _157
REMARK   70  A    between atoms: _159  and  _161
REMARK   71  A    between atoms: _161  and  _162
REMARK   72  A    between atoms: _161  and  _164
REMARK   73  A    between atoms: _164  and  _165
REMARK   74  A    between atoms: _168  and  _170
REMARK   75  A    between atoms: _170  and  _171
REMARK   76  A    between atoms: _170  and  _173
REMARK   77  A    between atoms: _173  and  _174
REMARK   78  A    between atoms: _177  and  _179
REMARK   79  A    between atoms: _179  and  _180
REMARK   80  A    between atoms: _179  and  _182
REMARK   81  A    between atoms: _182  and  _183
REMARK   82  A    between atoms: _185  and  _187
REMARK   83  A    between atoms: _187  and  _188
REMARK   84  A    between atoms: _187  and  _190
REMARK   85  A    between atoms: _190  and  _191
REMARK   86  A    between atoms: _201  and  _203
REMARK   87  A    between atoms: _203  and  _204
REMARK   88  A    between atoms: _206  and  _208
REMARK   89  A    between atoms: _208  and  _209
REMARK   90  A    between atoms: _208  and  _211
REMARK   91  A    between atoms: _211  and  _212
REMARK   92  A    between atoms: _215  and  _217
REMARK   93  A    between atoms: _217  and  _218
REMARK   94  A    between atoms: _220  and  _222
REMARK   95  A    between atoms: _222  and  _223
REMARK   96  A    between atoms: _222  and  _225
REMARK   97  A    between atoms: _225  and  _226
REMARK   98  A    between atoms: _227  and  _229
REMARK   99  A    between atoms: _229  and  _230
REMARK  100  A    between atoms: _232  and  _234
REMARK  101  A    between atoms: _234  and  _235
REMARK  102  A    between atoms: _234  and  _237
REMARK  103  A    between atoms: _237  and  _238
REMARK  104  A    between atoms: _238  and  _239
REMARK  105  A    between atoms: _244  and  _246
REMARK  106  A    between atoms: _246  and  _247
REMARK  107  A    between atoms: _246  and  _249
REMARK  108  A    between atoms: _253  and  _254
REMARK  109  A    between atoms: _259  and  _261
REMARK  110  A    between atoms: _261  and  _262
REMARK  111  A    between atoms: _264  and  _266
REMARK  112  A    between atoms: _266  and  _267
REMARK  113  A    between atoms: _266  and  _269
REMARK  114  A    between atoms: _272  and  _274
REMARK  115  A    between atoms: _274  and  _275
REMARK  116  A    between atoms: _274  and  _277
REMARK  117  A    between atoms: _277  and  _278
REMARK  118  A    between atoms: _283  and  _284
REMARK                            x       y       z     vdW  Elec       q    Type
REMARK                         _______ _______ _______ _____ _____    ______ ____
ROOT
ATOM      1  CG  LYS A   1     -10.282  29.833  25.706  0.00  0.00    -0.000 C 
ENDROOT
BRANCH   1   2
ATOM      2  CB  LYS A   1      -8.904  29.489  26.149  0.00  0.00    +0.025 C 
BRANCH   2   3
ATOM      3  CA  LYS A   1      -8.260  28.356  25.357  0.00  0.00    +0.133 C 
BRANCH   3   4
ATOM      4  N   LYS A   1      -7.194  27.771  26.148  0.00  0.00    -0.239 NA
ATOM      5  H   LYS A   1      -6.599  28.396  26.728  0.00  0.00    +0.142 HD
ENDBRANCH   3   4
BRANCH   3   6
ATOM      6  C   LYS A   1      -7.526  28.866  24.114  0.00  0.00    +0.224 C 
ATOM      7  O   LYS A   1      -6.448  29.466  24.232  0.00  0.00    -0.287 OA
ENDBRANCH   3   6
ENDBRANCH   2   3
ENDBRANCH   1   2
BRANCH   1   8
ATOM      8  CD  LYS A   1     -10.215  30.482  24.374  0.00  0.00    -0.024 C 
BRANCH   8   9
ATOM      9  CE  LYS A   1     -11.473  31.229  24.064  0.00  0.00    -0.086 C 
BRANCH   9  10
ATOM     10  NZ  LYS A   1     -11.128  32.253  23.048  0.00  0.00    +0.380 N 
ATOM     11  HZ1 LYS A   1     -10.405  32.893  23.434  0.00  0.00    -0.089 HD
ATOM     12  HZ2 LYS A   1     -11.980  32.798  22.803  0.00  0.00    -0.089 HD
ATOM     13  HZ3 LYS A   1     -10.758  31.784  22.197  0.00  0.00    -0.089 HD
ENDBRANCH   9  10
ENDBRANCH   8   9
ENDBRANCH   1   8
TORSDOF 7
REMARK  Name = ../refined-set-2016/1rtf/1rtf_pocket.pdb
REMARK  118 active torsions:
REMARK  status: ('A' for Active; 'I' for Inactive)
REMARK    1  A    between atoms: _1  and  _3
REMARK    2  A    between atoms: _3  and  _4
REMARK    3  A    between atoms: _3  and  _6
REMARK    4  A    between atoms: _6  and  _7
REMARK    5  A    between atoms: _7  and  _8
REMARK    6  A    between atoms: _8  and  _9
REMARK    7  A    between atoms: _9  and  _10
REMARK    8  A    between atoms: _14  and  _16
REMARK    9  A    between atoms: _16  and  _17
REMARK   10  A    between atoms: _16  and  _19
REMARK   11  A    between atoms: _19  and  _20
REMARK   12  A    between atoms: _25  and  _27
REMARK   13  A    between atoms: _27  and  _28
REMARK   14  A    between atoms: _27  and  _30
REMARK   15  A    between atoms: _30  and  _31
REMARK   16  A    between atoms: _36  and  _37
REMARK   17  A    between atoms: _39  and  _41
REMARK   18  A    between atoms: _41  and  _42
REMARK   19  A    between atoms: _41  and  _44
REMARK   20  A    between atoms: _44  and  _45
REMARK   21  A    between atoms: _48  and  _50
REMARK   22  A    between atoms: _50  and  _51
REMARK   23  A    between atoms: _50  and  _53
REMARK   24  A    between atoms: _53  and  _54
REMARK   25  A    between atoms: _57  and  _59
REMARK   26  A    between atoms: _59  and  _60
REMARK   27  A    between atoms: _59  and  _62
REMARK   28  A    between atoms: _62  and  _63
REMARK   29  A    between atoms: _63  and  _64
REMARK   30  A    between atoms: _64  and  _65
REMARK   31  A    between atoms: _65  and  _66
REMARK   32  A    between atoms: _70  and  _72
REMARK   33  A    between atoms: _72  and  _73
REMARK   34  A    between atoms: _76  and  _78
REMARK   35  A    between atoms: _78  and  _79
REMARK   36  A    between atoms: _82  and  _84
REMARK   37  A    between atoms: _84  and  _85
REMARK   38  A    between atoms: _84  and  _87
REMARK   39  A    between atoms: _87  and  _88
REMARK   40  A    between atoms: _93  and  _95
REMARK   41  A    between atoms: _95  and  _96
REMARK   42  A    between atoms: _95  and  _98
REMARK   43  A    between atoms: _98  and  _99
REMARK   44  A    between atoms: _102  and  _104
REMARK   45  A    between atoms: _104  and  _105
REMARK   46  A    between atoms: _108  and  _110
REMARK   47  A    between atoms: _110  and  _111
REMARK   48  A    between atoms: _110  and  _113
REMARK   49  A    between atoms: _113  and  _114
REMARK   50  A    between atoms: _114  and  _226
REMARK   51  A    between atoms: _115  and  _117
REMARK   52  A    between atoms: _117  and  _118
REMARK   53  A    between atoms: _117  and  _120
REMARK   54  A    between atoms: _120  and  _121
REMARK   55  A    between atoms: _121  and  _122
REMARK   56  A    between atoms: _127  and  _129
REMARK   57  A    between atoms: _129  and  _130
REMARK   58  A    between atoms: _132  and  _134
REMARK   59  A    between atoms: _134  and  _135
REMARK   60  A    between atoms: _134  and  _137
REMARK   61  A    between atoms: _137  and  _138
REMARK   62  A    between atoms: _141  and  _143
REMARK   63  A    between atoms: _143  and  _144
REMARK   64  A    between atoms: _143  and  _146
REMARK   65  A    between atoms: _146  and  _147
REMARK   66  A    between atoms: _149  and  _151
REMARK   67  A    between atoms: _151  and  _152
REMARK   68  A    between atoms: _154  and  _156
REMARK   69  A    between atoms: _156  and  _157
REMARK   70  A    between atoms: _159  and  _161
REMARK   71  A    between atoms: _161  and  _162
REMARK   72  A    between atoms: _161  and  _164
REMARK   73  A    between atoms: _164  and  _165
REMARK   74  A    between atoms: _168  and  _170
REMARK   75  A    between atoms: _170  and  _171
REMARK   76  A    between atoms: _170  and  _173
REMARK   77  A    between atoms: _173  and  _174
REMARK   78  A    between atoms: _177  and  _179
REMARK   79  A    between atoms: _179  and  _180
REMARK   80  A    between atoms: _179  and  _182
REMARK   81  A    between atoms: _182  and  _183
REMARK   82  A    between atoms: _185  and  _187
REMARK   83  A    between atoms: _187  and  _188
REMARK   84  A    between atoms: _187  and  _190
REMARK   85  A    between atoms: _190  and  _191
REMARK   86  A    between atoms: _201  and  _203
REMARK   87  A    between atoms: _203  and  _204
REMARK   88  A    between atoms: _206  and  _208
REMARK   89  A    between atoms: _208  and  _209
REMARK   90  A    between atoms: _208  and  _211
REMARK   91  A    between atoms: _211  and  _212
REMARK   92  A    between atoms: _215  and  _217
REMARK   93  A    between atoms: _217  and  _218
REMARK   94  A    between atoms: _220  and  _222
REMARK   95  A    between atoms: _222  and  _223
REMARK   96  A    between atoms: _222  and  _225
REMARK   97  A    between atoms: _225  and  _226
REMARK   98  A    between atoms: _227  and  _229
REMARK   99  A    between atoms: _229  and  _230
REMARK  100  A    between atoms: _232  and  _234
REMARK  101  A    between atoms: _234  and  _235
REMARK  102  A    between atoms: _234  and  _237
REMARK  103  A    between atoms: _237  and  _238
REMARK  104  A    between atoms: _238  and  _239
REMARK  105  A    between atoms: _244  and  _246
REMARK  106  A    between atoms: _246  and  _247
REMARK  107  A    between atoms: _246  and  _249
REMARK  108  A    between atoms: _253  and  _254
REMARK  109  A    between atoms: _259  and  _261
REMARK  110  A    between atoms: _261  and  _262
REMARK  111  A    between atoms: _264  and  _266
REMARK  112  A    between atoms: _266  and  _267
REMARK  113  A    between atoms: _266  and  _269
REMARK  114  A    between atoms: _272  and  _274
REMARK  115  A    between atoms: _274  and  _275
REMARK  116  A    between atoms: _274  and  _277
REMARK  117  A    between atoms: _277  and  _278
REMARK  118  A    between atoms: _283  and  _284
REMARK                            x       y       z     vdW  Elec       q    Type
REMARK                         _______ _______ _______ _____ _____    ______ ____
ROOT
ATOM      1  CB  HIS A   1      -4.566  27.730  44.366  0.00  0.00    +0.072 C 
ENDROOT
BRANCH   1   2
ATOM      2  CG  HIS A   1      -4.596  27.516  42.880  0.00  0.00    +0.082 A 
ATOM      3  CD2 HIS A   1      -5.511  26.884  42.104  0.00  0.00    +0.115 A 
ATOM      4  NE2 HIS A   1      -5.184  27.046  40.767  0.00  0.00    -0.221 NA
ATOM      5  CE1 HIS A   1      -4.081  27.765  40.753  0.00  0.00    +0.199 A 
ATOM      6  ND1 HIS A   1      -3.689  28.063  42.000  0.00  0.00    -0.227 NA
ENDBRANCH   1   2
BRANCH   1   7
ATOM      7  CA  HIS A   1      -3.805  26.659  45.157  0.00  0.00    +0.139 C 
BRANCH   7   8
ATOM      8  N   HIS A   1      -2.358  26.842  45.076  0.00  0.00    -0.239 NA
ATOM      9  H   HIS A   1      -1.955  27.483  44.363  0.00  0.00    +0.142 HD
ENDBRANCH   7   8
BRANCH   7  10
ATOM     10  C   HIS A   1      -4.254  25.267  44.761  0.00  0.00    +0.224 C 
ATOM     11  O   HIS A   1      -5.359  24.862  45.104  0.00  0.00    -0.287 OA
ENDBRANCH   7  10
ENDBRANCH   1   7
TORSDOF 4
REMARK  Name = ../refined-set-2016/1rtf/1rtf_pocket.pdb
REMARK  118 active torsions:
REMARK  status: ('A' for Active; 'I' for Inactive)
REMARK    1  A    between atoms: _1  and  _3
REMARK    2  A    between atoms: _3  and  _4
REMARK    3  A    between atoms: _3  and  _6
REMARK    4  A    between atoms: _6  and  _7
REMARK    5  A    between atoms: _7  and  _8
REMARK    6  A    between atoms: _8  and  _9
REMARK    7  A    between atoms: _9  and  _10
REMARK    8  A    between atoms: _14  and  _16
REMARK    9  A    between atoms: _16  and  _17
REMARK   10  A    between atoms: _16  and  _19
REMARK   11  A    between atoms: _19  and  _20
REMARK   12  A    between atoms: _25  and  _27
REMARK   13  A    between atoms: _27  and  _28
REMARK   14  A    between atoms: _27  and  _30
REMARK   15  A    between atoms: _30  and  _31
REMARK   16  A    between atoms: _36  and  _37
REMARK   17  A    between atoms: _39  and  _41
REMARK   18  A    between atoms: _41  and  _42
REMARK   19  A    between atoms: _41  and  _44
REMARK   20  A    between atoms: _44  and  _45
REMARK   21  A    between atoms: _48  and  _50
REMARK   22  A    between atoms: _50  and  _51
REMARK   23  A    between atoms: _50  and  _53
REMARK   24  A    between atoms: _53  and  _54
REMARK   25  A    between atoms: _57  and  _59
REMARK   26  A    between atoms: _59  and  _60
REMARK   27  A    between atoms: _59  and  _62
REMARK   28  A    between atoms: _62  and  _63
REMARK   29  A    between atoms: _63  and  _64
REMARK   30  A    between atoms: _64  and  _65
REMARK   31  A    between atoms: _65  and  _66
REMARK   32  A    between atoms: _70  and  _72
REMARK   33  A    between atoms: _72  and  _73
REMARK   34  A    between atoms: _76  and  _78
REMARK   35  A    between atoms: _78  and  _79
REMARK   36  A    between atoms: _82  and  _84
REMARK   37  A    between atoms: _84  and  _85
REMARK   38  A    between atoms: _84  and  _87
REMARK   39  A    between atoms: _87  and  _88
REMARK   40  A    between atoms: _93  and  _95
REMARK   41  A    between atoms: _95  and  _96
REMARK   42  A    between atoms: _95  and  _98
REMARK   43  A    between atoms: _98  and  _99
REMARK   44  A    between atoms: _102  and  _104
REMARK   45  A    between atoms: _104  and  _105
REMARK   46  A    between atoms: _108  and  _110
REMARK   47  A    between atoms: _110  and  _111
REMARK   48  A    between atoms: _110  and  _113
REMARK   49  A    between atoms: _113  and  _114
REMARK   50  A    between atoms: _114  and  _226
REMARK   51  A    between atoms: _115  and  _117
REMARK   52  A    between atoms: _117  and  _118
REMARK   53  A    between atoms: _117  and  _120
REMARK   54  A    between atoms: _120  and  _121
REMARK   55  A    between atoms: _121  and  _122
REMARK   56  A    between atoms: _127  and  _129
REMARK   57  A    between atoms: _129  and  _130
REMARK   58  A    between atoms: _132  and  _134
REMARK   59  A    between atoms: _134  and  _135
REMARK   60  A    between atoms: _134  and  _137
REMARK   61  A    between atoms: _137  and  _138
REMARK   62  A    between atoms: _141  and  _143
REMARK   63  A    between atoms: _143  and  _144
REMARK   64  A    between atoms: _143  and  _146
REMARK   65  A    between atoms: _146  and  _147
REMARK   66  A    between atoms: _149  and  _151
REMARK   67  A    between atoms: _151  and  _152
REMARK   68  A    between atoms: _154  and  _156
REMARK   69  A    between atoms: _156  and  _157
REMARK   70  A    between atoms: _159  and  _161
REMARK   71  A    between atoms: _161  and  _162
REMARK   72  A    between atoms: _161  and  _164
REMARK   73  A    between atoms: _164  and  _165
REMARK   74  A    between atoms: _168  and  _170
REMARK   75  A    between atoms: _170  and  _171
REMARK   76  A    between atoms: _170  and  _173
REMARK   77  A    between atoms: _173  and  _174
REMARK   78  A    between atoms: _177  and  _179
REMARK   79  A    between atoms: _179  and  _180
REMARK   80  A    between atoms: _179  and  _182
REMARK   81  A    between atoms: _182  and  _183
REMARK   82  A    between atoms: _185  and  _187
REMARK   83  A    between atoms: _187  and  _188
REMARK   84  A    between atoms: _187  and  _190
REMARK   85  A    between atoms: _190  and  _191
REMARK   86  A    between atoms: _201  and  _203
REMARK   87  A    between atoms: _203  and  _204
REMARK   88  A    between atoms: _206  and  _208
REMARK   89  A    between atoms: _208  and  _209
REMARK   90  A    between atoms: _208  and  _211
REMARK   91  A    between atoms: _211  and  _212
REMARK   92  A    between atoms: _215  and  _217
REMARK   93  A    between atoms: _217  and  _218
REMARK   94  A    between atoms: _220  and  _222
REMARK   95  A    between atoms: _222  and  _223
REMARK   96  A    between atoms: _222  and  _225
REMARK   97  A    between atoms: _225  and  _226
REMARK   98  A    between atoms: _227  and  _229
REMARK   99  A    between atoms: _229  and  _230
REMARK  100  A    between atoms: _232  and  _234
REMARK  101  A    between atoms: _234  and  _235
REMARK  102  A    between atoms: _234  and  _237
REMARK  103  A    between atoms: _237  and  _238
REMARK  104  A    between atoms: _238  and  _239
REMARK  105  A    between atoms: _244  and  _246
REMARK  106  A    between atoms: _246  and  _247
REMARK  107  A    between atoms: _246  and  _249
REMARK  108  A    between atoms: _253  and  _254
REMARK  109  A    between atoms: _259  and  _261
REMARK  110  A    between atoms: _261  and  _262
REMARK  111  A    between atoms: _264  and  _266
REMARK  112  A    between atoms: _266  and  _267
REMARK  113  A    between atoms: _266  and  _269
REMARK  114  A    between atoms: _272  and  _274
REMARK  115  A    between atoms: _274  and  _275
REMARK  116  A    between atoms: _274  and  _277
REMARK  117  A    between atoms: _277  and  _278
REMARK  118  A    between atoms: _283  and  _284
REMARK                            x       y       z     vdW  Elec       q    Type
REMARK                         _______ _______ _______ _____ _____    ______ ____
ROOT
ATOM      1  CG  TYR A   1      -5.244  32.391  44.019  0.00  0.00    -0.020 A 
ATOM      2  CD2 TYR A   1      -5.893  31.997  45.183  0.00  0.00    -0.001 A 
ATOM      3  CE2 TYR A   1      -6.791  30.949  45.183  0.00  0.00    +0.036 A 
ATOM      4  CZ  TYR A   1      -7.048  30.273  44.007  0.00  0.00    +0.134 A 
ATOM      5  CE1 TYR A   1      -6.410  30.648  42.837  0.00  0.00    +0.036 A 
ATOM      6  CD1 TYR A   1      -5.513  31.704  42.852  0.00  0.00    -0.001 A 
ENDROOT
BRANCH   4   7
ATOM      7  OH  TYR A   1      -7.934  29.214  44.014  0.00  0.00    -0.506 OA
ATOM      8  HH  TYR A   1      -8.291  29.090  44.929  0.00  0.00    +0.292 HD
ENDBRANCH   4   7
BRANCH   1   9
ATOM      9  CB  TYR A   1      -4.292  33.543  44.031  0.00  0.00    +0.051 C 
BRANCH   9  10
ATOM     10  CA  TYR A   1      -3.790  33.862  45.434  0.00  0.00    +0.137 C 
BRANCH  10  11
ATOM     11  N   TYR A   1      -4.688  34.749  46.165  0.00  0.00    -0.239 NA
ATOM     12  H   TYR A   1      -4.980  34.456  47.119  0.00  0.00    +0.142 HD
ENDBRANCH  10  11
BRANCH  10  13
ATOM     13  C   TYR A   1      -2.368  34.340  45.378  0.00  0.00    +0.224 C 
ATOM     14  O   TYR A   1      -1.577  33.830  44.586  0.00  0.00    -0.287 OA
ENDBRANCH  10  13
ENDBRANCH   9  10
ENDBRANCH   1   9
TORSDOF 5
REMARK  Name = ../refined-set-2016/1rtf/1rtf_pocket.pdb
REMARK  118 active torsions:
REMARK  status: ('A' for Active; 'I' for Inactive)
REMARK    1  A    between atoms: _1  and  _3
REMARK    2  A    between atoms: _3  and  _4
REMARK    3  A    between atoms: _3  and  _6
REMARK    4  A    between atoms: _6  and  _7
REMARK    5  A    between atoms: _7  and  _8
REMARK    6  A    between atoms: _8  and  _9
REMARK    7  A    between atoms: _9  and  _10
REMARK    8  A    between atoms: _14  and  _16
REMARK    9  A    between atoms: _16  and  _17
REMARK   10  A    between atoms: _16  and  _19
REMARK   11  A    between atoms: _19  and  _20
REMARK   12  A    between atoms: _25  and  _27
REMARK   13  A    between atoms: _27  and  _28
REMARK   14  A    between atoms: _27  and  _30
REMARK   15  A    between atoms: _30  and  _31
REMARK   16  A    between atoms: _36  and  _37
REMARK   17  A    between atoms: _39  and  _41
REMARK   18  A    between atoms: _41  and  _42
REMARK   19  A    between atoms: _41  and  _44
REMARK   20  A    between atoms: _44  and  _45
REMARK   21  A    between atoms: _48  and  _50
REMARK   22  A    between atoms: _50  and  _51
REMARK   23  A    between atoms: _50  and  _53
REMARK   24  A    between atoms: _53  and  _54
REMARK   25  A    between atoms: _57  and  _59
REMARK   26  A    between atoms: _59  and  _60
REMARK   27  A    between atoms: _59  and  _62
REMARK   28  A    between atoms: _62  and  _63
REMARK   29  A    between atoms: _63  and  _64
REMARK   30  A    between atoms: _64  and  _65
REMARK   31  A    between atoms: _65  and  _66
REMARK   32  A    between atoms: _70  and  _72
REMARK   33  A    between atoms: _72  and  _73
REMARK   34  A    between atoms: _76  and  _78
REMARK   35  A    between atoms: _78  and  _79
REMARK   36  A    between atoms: _82  and  _84
REMARK   37  A    between atoms: _84  and  _85
REMARK   38  A    between atoms: _84  and  _87
REMARK   39  A    between atoms: _87  and  _88
REMARK   40  A    between atoms: _93  and  _95
REMARK   41  A    between atoms: _95  and  _96
REMARK   42  A    between atoms: _95  and  _98
REMARK   43  A    between atoms: _98  and  _99
REMARK   44  A    between atoms: _102  and  _104
REMARK   45  A    between atoms: _104  and  _105
REMARK   46  A    between atoms: _108  and  _110
REMARK   47  A    between atoms: _110  and  _111
REMARK   48  A    between atoms: _110  and  _113
REMARK   49  A    between atoms: _113  and  _114
REMARK   50  A    between atoms: _114  and  _226
REMARK   51  A    between atoms: _115  and  _117
REMARK   52  A    between atoms: _117  and  _118
REMARK   53  A    between atoms: _117  and  _120
REMARK   54  A    between atoms: _120  and  _121
REMARK   55  A    between atoms: _121  and  _122
REMARK   56  A    between atoms: _127  and  _129
REMARK   57  A    between atoms: _129  and  _130
REMARK   58  A    between atoms: _132  and  _134
REMARK   59  A    between atoms: _134  and  _135
REMARK   60  A    between atoms: _134  and  _137
REMARK   61  A    between atoms: _137  and  _138
REMARK   62  A    between atoms: _141  and  _143
REMARK   63  A    between atoms: _143  and  _144
REMARK   64  A    between atoms: _143  and  _146
REMARK   65  A    between atoms: _146  and  _147
REMARK   66  A    between atoms: _149  and  _151
REMARK   67  A    between atoms: _151  and  _152
REMARK   68  A    between atoms: _154  and  _156
REMARK   69  A    between atoms: _156  and  _157
REMARK   70  A    between atoms: _159  and  _161
REMARK   71  A    between atoms: _161  and  _162
REMARK   72  A    between atoms: _161  and  _164
REMARK   73  A    between atoms: _164  and  _165
REMARK   74  A    between atoms: _168  and  _170
REMARK   75  A    between atoms: _170  and  _171
REMARK   76  A    between atoms: _170  and  _173
REMARK   77  A    between atoms: _173  and  _174
REMARK   78  A    between atoms: _177  and  _179
REMARK   79  A    between atoms: _179  and  _180
REMARK   80  A    between atoms: _179  and  _182
REMARK   81  A    between atoms: _182  and  _183
REMARK   82  A    between atoms: _185  and  _187
REMARK   83  A    between atoms: _187  and  _188
REMARK   84  A    between atoms: _187  and  _190
REMARK   85  A    between atoms: _190  and  _191
REMARK   86  A    between atoms: _201  and  _203
REMARK   87  A    between atoms: _203  and  _204
REMARK   88  A    between atoms: _206  and  _208
REMARK   89  A    between atoms: _208  and  _209
REMARK   90  A    between atoms: _208  and  _211
REMARK   91  A    between atoms: _211  and  _212
REMARK   92  A    between atoms: _215  and  _217
REMARK   93  A    between atoms: _217  and  _218
REMARK   94  A    between atoms: _220  and  _222
REMARK   95  A    between atoms: _222  and  _223
REMARK   96  A    between atoms: _222  and  _225
REMARK   97  A    between atoms: _225  and  _226
REMARK   98  A    between atoms: _227  and  _229
REMARK   99  A    between atoms: _229  and  _230
REMARK  100  A    between atoms: _232  and  _234
REMARK  101  A    between atoms: _234  and  _235
REMARK  102  A    between atoms: _234  and  _237
REMARK  103  A    between atoms: _237  and  _238
REMARK  104  A    between atoms: _238  and  _239
REMARK  105  A    between atoms: _244  and  _246
REMARK  106  A    between atoms: _246  and  _247
REMARK  107  A    between atoms: _246  and  _249
REMARK  108  A    between atoms: _253  and  _254
REMARK  109  A    between atoms: _259  and  _261
REMARK  110  A    between atoms: _261  and  _262
REMARK  111  A    between atoms: _264  and  _266
REMARK  112  A    between atoms: _266  and  _267
REMARK  113  A    between atoms: _266  and  _269
REMARK  114  A    between atoms: _272  and  _274
REMARK  115  A    between atoms: _274  and  _275
REMARK  116  A    between atoms: _274  and  _277
REMARK  117  A    between atoms: _277  and  _278
REMARK  118  A    between atoms: _283  and  _284
REMARK                            x       y       z     vdW  Elec       q    Type
REMARK                         _______ _______ _______ _____ _____    ______ ____
ROOT
ATOM      1  CA  ASP A   1       0.805  30.879  44.544  0.00  0.00    +0.144 C 
ENDROOT
BRANCH   1   2
ATOM      2  N   ASP A   1       1.314  32.130  45.120  0.00  0.00    -0.239 NA
ATOM      3  H   ASP A   1       1.200  33.005  44.569  0.00  0.00    +0.142 HD
ENDBRANCH   1   2
BRANCH   1   4
ATOM      4  C   ASP A   1       1.946  30.044  43.894  0.00  0.00    +0.225 C 
ATOM      5  O   ASP A   1       2.097  30.016  42.668  0.00  0.00    -0.287 OA
ENDBRANCH   1   4
BRANCH   1   6
ATOM      6  CB  ASP A   1      -0.271  31.235  43.511  0.00  0.00    +0.139 C 
BRANCH   6   7
ATOM      7  CG  ASP A   1      -1.141  30.069  43.132  0.00  0.00    +0.367 C 
ATOM      8  OD2 ASP A   1      -1.190  29.082  43.886  0.00  0.00    -0.246 OA
ATOM      9  OD1 ASP A   1      -1.793  30.153  42.070  0.00  0.00    -0.246 OA
ENDBRANCH   6   7
ENDBRANCH   1   6
TORSDOF 4
REMARK  Name = ../refined-set-2016/1rtf/1rtf_pocket.pdb
REMARK  118 active torsions:
REMARK  status: ('A' for Active; 'I' for Inactive)
REMARK    1  A    between atoms: _1  and  _3
REMARK    2  A    between atoms: _3  and  _4
REMARK    3  A    between atoms: _3  and  _6
REMARK    4  A    between atoms: _6  and  _7
REMARK    5  A    between atoms: _7  and  _8
REMARK    6  A    between atoms: _8  and  _9
REMARK    7  A    between atoms: _9  and  _10
REMARK    8  A    between atoms: _14  and  _16
REMARK    9  A    between atoms: _16  and  _17
REMARK   10  A    between atoms: _16  and  _19
REMARK   11  A    between atoms: _19  and  _20
REMARK   12  A    between atoms: _25  and  _27
REMARK   13  A    between atoms: _27  and  _28
REMARK   14  A    between atoms: _27  and  _30
REMARK   15  A    between atoms: _30  and  _31
REMARK   16  A    between atoms: _36  and  _37
REMARK   17  A    between atoms: _39  and  _41
REMARK   18  A    between atoms: _41  and  _42
REMARK   19  A    between atoms: _41  and  _44
REMARK   20  A    between atoms: _44  and  _45
REMARK   21  A    between atoms: _48  and  _50
REMARK   22  A    between atoms: _50  and  _51
REMARK   23  A    between atoms: _50  and  _53
REMARK   24  A    between atoms: _53  and  _54
REMARK   25  A    between atoms: _57  and  _59
REMARK   26  A    between atoms: _59  and  _60
REMARK   27  A    between atoms: _59  and  _62
REMARK   28  A    between atoms: _62  and  _63
REMARK   29  A    between atoms: _63  and  _64
REMARK   30  A    between atoms: _64  and  _65
REMARK   31  A    between atoms: _65  and  _66
REMARK   32  A    between atoms: _70  and  _72
REMARK   33  A    between atoms: _72  and  _73
REMARK   34  A    between atoms: _76  and  _78
REMARK   35  A    between atoms: _78  and  _79
REMARK   36  A    between atoms: _82  and  _84
REMARK   37  A    between atoms: _84  and  _85
REMARK   38  A    between atoms: _84  and  _87
REMARK   39  A    between atoms: _87  and  _88
REMARK   40  A    between atoms: _93  and  _95
REMARK   41  A    between atoms: _95  and  _96
REMARK   42  A    between atoms: _95  and  _98
REMARK   43  A    between atoms: _98  and  _99
REMARK   44  A    between atoms: _102  and  _104
REMARK   45  A    between atoms: _104  and  _105
REMARK   46  A    between atoms: _108  and  _110
REMARK   47  A    between atoms: _110  and  _111
REMARK   48  A    between atoms: _110  and  _113
REMARK   49  A    between atoms: _113  and  _114
REMARK   50  A    between atoms: _114  and  _226
REMARK   51  A    between atoms: _115  and  _117
REMARK   52  A    between atoms: _117  and  _118
REMARK   53  A    between atoms: _117  and  _120
REMARK   54  A    between atoms: _120  and  _121
REMARK   55  A    between atoms: _121  and  _122
REMARK   56  A    between atoms: _127  and  _129
REMARK   57  A    between atoms: _129  and  _130
REMARK   58  A    between atoms: _132  and  _134
REMARK   59  A    between atoms: _134  and  _135
REMARK   60  A    between atoms: _134  and  _137
REMARK   61  A    between atoms: _137  and  _138
REMARK   62  A    between atoms: _141  and  _143
REMARK   63  A    between atoms: _143  and  _144
REMARK   64  A    between atoms: _143  and  _146
REMARK   65  A    between atoms: _146  and  _147
REMARK   66  A    between atoms: _149  and  _151
REMARK   67  A    between atoms: _151  and  _152
REMARK   68  A    between atoms: _154  and  _156
REMARK   69  A    between atoms: _156  and  _157
REMARK   70  A    between atoms: _159  and  _161
REMARK   71  A    between atoms: _161  and  _162
REMARK   72  A    between atoms: _161  and  _164
REMARK   73  A    between atoms: _164  and  _165
REMARK   74  A    between atoms: _168  and  _170
REMARK   75  A    between atoms: _170  and  _171
REMARK   76  A    between atoms: _170  and  _173
REMARK   77  A    between atoms: _173  and  _174
REMARK   78  A    between atoms: _177  and  _179
REMARK   79  A    between atoms: _179  and  _180
REMARK   80  A    between atoms: _179  and  _182
REMARK   81  A    between atoms: _182  and  _183
REMARK   82  A    between atoms: _185  and  _187
REMARK   83  A    between atoms: _187  and  _188
REMARK   84  A    between atoms: _187  and  _190
REMARK   85  A    between atoms: _190  and  _191
REMARK   86  A    between atoms: _201  and  _203
REMARK   87  A    between atoms: _203  and  _204
REMARK   88  A    between atoms: _206  and  _208
REMARK   89  A    between atoms: _208  and  _209
REMARK   90  A    between atoms: _208  and  _211
REMARK   91  A    between atoms: _211  and  _212
REMARK   92  A    between atoms: _215  and  _217
REMARK   93  A    between atoms: _217  and  _218
REMARK   94  A    between atoms: _220  and  _222
REMARK   95  A    between atoms: _222  and  _223
REMARK   96  A    between atoms: _222  and  _225
REMARK   97  A    between atoms: _225  and  _226
REMARK   98  A    between atoms: _227  and  _229
REMARK   99  A    between atoms: _229  and  _230
REMARK  100  A    between atoms: _232  and  _234
REMARK  101  A    between atoms: _234  and  _235
REMARK  102  A    between atoms: _234  and  _237
REMARK  103  A    between atoms: _237  and  _238
REMARK  104  A    between atoms: _238  and  _239
REMARK  105  A    between atoms: _244  and  _246
REMARK  106  A    between atoms: _246  and  _247
REMARK  107  A    between atoms: _246  and  _249
REMARK  108  A    between atoms: _253  and  _254
REMARK  109  A    between atoms: _259  and  _261
REMARK  110  A    between atoms: _261  and  _262
REMARK  111  A    between atoms: _264  and  _266
REMARK  112  A    between atoms: _266  and  _267
REMARK  113  A    between atoms: _266  and  _269
REMARK  114  A    between atoms: _272  and  _274
REMARK  115  A    between atoms: _274  and  _275
REMARK  116  A    between atoms: _274  and  _277
REMARK  117  A    between atoms: _277  and  _278
REMARK  118  A    between atoms: _283  and  _284
REMARK                            x       y       z     vdW  Elec       q    Type
REMARK                         _______ _______ _______ _____ _____    ______ ____
ROOT
ATOM      1  CA  LEU A   1       2.359  28.234  27.612  0.00  0.00    +0.133 C 
ENDROOT
BRANCH   1   2
ATOM      2  N   LEU A   1       2.752  29.031  26.455  0.00  0.00    -0.239 NA
ATOM      3  H   LEU A   1       2.153  29.017  25.605  0.00  0.00    +0.142 HD
ENDBRANCH   1   2
BRANCH   1   4
ATOM      4  C   LEU A   1       1.798  26.900  27.173  0.00  0.00    +0.224 C 
ATOM      5  O   LEU A   1       1.583  26.682  25.989  0.00  0.00    -0.287 OA
ENDBRANCH   1   4
BRANCH   1   6
ATOM      6  CB  LEU A   1       1.323  28.974  28.490  0.00  0.00    +0.025 C 
BRANCH   6   7
ATOM      7  CG  LEU A   1       0.011  29.532  27.931  0.00  0.00    +0.002 C 
ATOM      8  CD2 LEU A   1      -1.035  29.468  28.990  0.00  0.00    +0.000 C 
ATOM      9  CD1 LEU A   1       0.174  30.955  27.483  0.00  0.00    +0.000 C 
ENDBRANCH   6   7
ENDBRANCH   1   6
TORSDOF 4
REMARK  Name = ../refined-set-2016/1rtf/1rtf_pocket.pdb
REMARK  118 active torsions:
REMARK  status: ('A' for Active; 'I' for Inactive)
REMARK    1  A    between atoms: _1  and  _3
REMARK    2  A    between atoms: _3  and  _4
REMARK    3  A    between atoms: _3  and  _6
REMARK    4  A    between atoms: _6  and  _7
REMARK    5  A    between atoms: _7  and  _8
REMARK    6  A    between atoms: _8  and  _9
REMARK    7  A    between atoms: _9  and  _10
REMARK    8  A    between atoms: _14  and  _16
REMARK    9  A    between atoms: _16  and  _17
REMARK   10  A    between atoms: _16  and  _19
REMARK   11  A    between atoms: _19  and  _20
REMARK   12  A    between atoms: _25  and  _27
REMARK   13  A    between atoms: _27  and  _28
REMARK   14  A    between atoms: _27  and  _30
REMARK   15  A    between atoms: _30  and  _31
REMARK   16  A    between atoms: _36  and  _37
REMARK   17  A    between atoms: _39  and  _41
REMARK   18  A    between atoms: _41  and  _42
REMARK   19  A    between atoms: _41  and  _44
REMARK   20  A    between atoms: _44  and  _45
REMARK   21  A    between atoms: _48  and  _50
REMARK   22  A    between atoms: _50  and  _51
REMARK   23  A    between atoms: _50  and  _53
REMARK   24  A    between atoms: _53  and  _54
REMARK   25  A    between atoms: _57  and  _59
REMARK   26  A    between atoms: _59  and  _60
REMARK   27  A    between atoms: _59  and  _62
REMARK   28  A    between atoms: _62  and  _63
REMARK   29  A    between atoms: _63  and  _64
REMARK   30  A    between atoms: _64  and  _65
REMARK   31  A    between atoms: _65  and  _66
REMARK   32  A    between atoms: _70  and  _72
REMARK   33  A    between atoms: _72  and  _73
REMARK   34  A    between atoms: _76  and  _78
REMARK   35  A    between atoms: _78  and  _79
REMARK   36  A    between atoms: _82  and  _84
REMARK   37  A    between atoms: _84  and  _85
REMARK   38  A    between atoms: _84  and  _87
REMARK   39  A    between atoms: _87  and  _88
REMARK   40  A    between atoms: _93  and  _95
REMARK   41  A    between atoms: _95  and  _96
REMARK   42  A    between atoms: _95  and  _98
REMARK   43  A    between atoms: _98  and  _99
REMARK   44  A    between atoms: _102  and  _104
REMARK   45  A    between atoms: _104  and  _105
REMARK   46  A    between atoms: _108  and  _110
REMARK   47  A    between atoms: _110  and  _111
REMARK   48  A    between atoms: _110  and  _113
REMARK   49  A    between atoms: _113  and  _114
REMARK   50  A    between atoms: _114  and  _226
REMARK   51  A    between atoms: _115  and  _117
REMARK   52  A    between atoms: _117  and  _118
REMARK   53  A    between atoms: _117  and  _120
REMARK   54  A    between atoms: _120  and  _121
REMARK   55  A    between atoms: _121  and  _122
REMARK   56  A    between atoms: _127  and  _129
REMARK   57  A    between atoms: _129  and  _130
REMARK   58  A    between atoms: _132  and  _134
REMARK   59  A    between atoms: _134  and  _135
REMARK   60  A    between atoms: _134  and  _137
REMARK   61  A    between atoms: _137  and  _138
REMARK   62  A    between atoms: _141  and  _143
REMARK   63  A    between atoms: _143  and  _144
REMARK   64  A    between atoms: _143  and  _146
REMARK   65  A    between atoms: _146  and  _147
REMARK   66  A    between atoms: _149  and  _151
REMARK   67  A    between atoms: _151  and  _152
REMARK   68  A    between atoms: _154  and  _156
REMARK   69  A    between atoms: _156  and  _157
REMARK   70  A    between atoms: _159  and  _161
REMARK   71  A    between atoms: _161  and  _162
REMARK   72  A    between atoms: _161  and  _164
REMARK   73  A    between atoms: _164  and  _165
REMARK   74  A    between atoms: _168  and  _170
REMARK   75  A    between atoms: _170  and  _171
REMARK   76  A    between atoms: _170  and  _173
REMARK   77  A    between atoms: _173  and  _174
REMARK   78  A    between atoms: _177  and  _179
REMARK   79  A    between atoms: _179  and  _180
REMARK   80  A    between atoms: _179  and  _182
REMARK   81  A    between atoms: _182  and  _183
REMARK   82  A    between atoms: _185  and  _187
REMARK   83  A    between atoms: _187  and  _188
REMARK   84  A    between atoms: _187  and  _190
REMARK   85  A    between atoms: _190  and  _191
REMARK   86  A    between atoms: _201  and  _203
REMARK   87  A    between atoms: _203  and  _204
REMARK   88  A    between atoms: _206  and  _208
REMARK   89  A    between atoms: _208  and  _209
REMARK   90  A    between atoms: _208  and  _211
REMARK   91  A    between atoms: _211  and  _212
REMARK   92  A    between atoms: _215  and  _217
REMARK   93  A    between atoms: _217  and  _218
REMARK   94  A    between atoms: _220  and  _222
REMARK   95  A    between atoms: _222  and  _223
REMARK   96  A    between atoms: _222  and  _225
REMARK   97  A    between atoms: _225  and  _226
REMARK   98  A    between atoms: _227  and  _229
REMARK   99  A    between atoms: _229  and  _230
REMARK  100  A    between atoms: _232  and  _234
REMARK  101  A    between atoms: _234  and  _235
REMARK  102  A    between atoms: _234  and  _237
REMARK  103  A    between atoms: _237  and  _238
REMARK  104  A    between atoms: _238  and  _239
REMARK  105  A    between atoms: _244  and  _246
REMARK  106  A    between atoms: _246  and  _247
REMARK  107  A    between atoms: _246  and  _249
REMARK  108  A    between atoms: _253  and  _254
REMARK  109  A    between atoms: _259  and  _261
REMARK  110  A    between atoms: _261  and  _262
REMARK  111  A    between atoms: _264  and  _266
REMARK  112  A    between atoms: _266  and  _267
REMARK  113  A    between atoms: _266  and  _269
REMARK  114  A    between atoms: _272  and  _274
REMARK  115  A    between atoms: _274  and  _275
REMARK  116  A    between atoms: _274  and  _277
REMARK  117  A    between atoms: _277  and  _278
REMARK  118  A    between atoms: _283  and  _284
REMARK                            x       y       z     vdW  Elec       q    Type
REMARK                         _______ _______ _______ _____ _____    ______ ____
ROOT
ATOM      1  CG  LYS A   1     -11.713  22.927  31.655  0.00  0.00    -0.000 C 
ENDROOT
BRANCH   1   2
ATOM      2  CB  LYS A   1     -11.208  23.743  30.512  0.00  0.00    +0.025 C 
BRANCH   2   3
ATOM      3  CA  LYS A   1     -10.135  23.067  29.661  0.00  0.00    +0.133 C 
BRANCH   3   4
ATOM      4  N   LYS A   1      -8.961  22.793  30.467  0.00  0.00    -0.239 NA
ATOM      5  H   LYS A   1      -8.992  23.037  31.477  0.00  0.00    +0.142 HD
ENDBRANCH   3   4
BRANCH   3   6
ATOM      6  C   LYS A   1      -9.850  23.963  28.477  0.00  0.00    +0.224 C 
ATOM      7  O   LYS A   1      -8.890  24.755  28.468  0.00  0.00    -0.287 OA
ENDBRANCH   3   6
ENDBRANCH   2   3
ENDBRANCH   1   2
BRANCH   1   8
ATOM      8  CD  LYS A   1     -12.795  23.665  32.391  0.00  0.00    -0.024 C 
BRANCH   8   9
ATOM      9  CE  LYS A   1     -13.204  22.850  33.593  0.00  0.00    -0.086 C 
BRANCH   9  10
ATOM     10  NZ  LYS A   1     -14.341  23.487  34.309  0.00  0.00    +0.380 N 
ATOM     11  HZ1 LYS A   1     -14.601  22.905  35.131  0.00  0.00    -0.089 HD
ATOM     12  HZ2 LYS A   1     -14.060  24.436  34.629  0.00  0.00    -0.089 HD
ATOM     13  HZ3 LYS A   1     -15.155  23.564  33.666  0.00  0.00    -0.089 HD
ENDBRANCH   9  10
ENDBRANCH   8   9
ENDBRANCH   1   8
TORSDOF 7
REMARK  Name = ../refined-set-2016/1rtf/1rtf_pocket.pdb
REMARK  118 active torsions:
REMARK  status: ('A' for Active; 'I' for Inactive)
REMARK    1  A    between atoms: _1  and  _3
REMARK    2  A    between atoms: _3  and  _4
REMARK    3  A    between atoms: _3  and  _6
REMARK    4  A    between atoms: _6  and  _7
REMARK    5  A    between atoms: _7  and  _8
REMARK    6  A    between atoms: _8  and  _9
REMARK    7  A    between atoms: _9  and  _10
REMARK    8  A    between atoms: _14  and  _16
REMARK    9  A    between atoms: _16  and  _17
REMARK   10  A    between atoms: _16  and  _19
REMARK   11  A    between atoms: _19  and  _20
REMARK   12  A    between atoms: _25  and  _27
REMARK   13  A    between atoms: _27  and  _28
REMARK   14  A    between atoms: _27  and  _30
REMARK   15  A    between atoms: _30  and  _31
REMARK   16  A    between atoms: _36  and  _37
REMARK   17  A    between atoms: _39  and  _41
REMARK   18  A    between atoms: _41  and  _42
REMARK   19  A    between atoms: _41  and  _44
REMARK   20  A    between atoms: _44  and  _45
REMARK   21  A    between atoms: _48  and  _50
REMARK   22  A    between atoms: _50  and  _51
REMARK   23  A    between atoms: _50  and  _53
REMARK   24  A    between atoms: _53  and  _54
REMARK   25  A    between atoms: _57  and  _59
REMARK   26  A    between atoms: _59  and  _60
REMARK   27  A    between atoms: _59  and  _62
REMARK   28  A    between atoms: _62  and  _63
REMARK   29  A    between atoms: _63  and  _64
REMARK   30  A    between atoms: _64  and  _65
REMARK   31  A    between atoms: _65  and  _66
REMARK   32  A    between atoms: _70  and  _72
REMARK   33  A    between atoms: _72  and  _73
REMARK   34  A    between atoms: _76  and  _78
REMARK   35  A    between atoms: _78  and  _79
REMARK   36  A    between atoms: _82  and  _84
REMARK   37  A    between atoms: _84  and  _85
REMARK   38  A    between atoms: _84  and  _87
REMARK   39  A    between atoms: _87  and  _88
REMARK   40  A    between atoms: _93  and  _95
REMARK   41  A    between atoms: _95  and  _96
REMARK   42  A    between atoms: _95  and  _98
REMARK   43  A    between atoms: _98  and  _99
REMARK   44  A    between atoms: _102  and  _104
REMARK   45  A    between atoms: _104  and  _105
REMARK   46  A    between atoms: _108  and  _110
REMARK   47  A    between atoms: _110  and  _111
REMARK   48  A    between atoms: _110  and  _113
REMARK   49  A    between atoms: _113  and  _114
REMARK   50  A    between atoms: _114  and  _226
REMARK   51  A    between atoms: _115  and  _117
REMARK   52  A    between atoms: _117  and  _118
REMARK   53  A    between atoms: _117  and  _120
REMARK   54  A    between atoms: _120  and  _121
REMARK   55  A    between atoms: _121  and  _122
REMARK   56  A    between atoms: _127  and  _129
REMARK   57  A    between atoms: _129  and  _130
REMARK   58  A    between atoms: _132  and  _134
REMARK   59  A    between atoms: _134  and  _135
REMARK   60  A    between atoms: _134  and  _137
REMARK   61  A    between atoms: _137  and  _138
REMARK   62  A    between atoms: _141  and  _143
REMARK   63  A    between atoms: _143  and  _144
REMARK   64  A    between atoms: _143  and  _146
REMARK   65  A    between atoms: _146  and  _147
REMARK   66  A    between atoms: _149  and  _151
REMARK   67  A    between atoms: _151  and  _152
REMARK   68  A    between atoms: _154  and  _156
REMARK   69  A    between atoms: _156  and  _157
REMARK   70  A    between atoms: _159  and  _161
REMARK   71  A    between atoms: _161  and  _162
REMARK   72  A    between atoms: _161  and  _164
REMARK   73  A    between atoms: _164  and  _165
REMARK   74  A    between atoms: _168  and  _170
REMARK   75  A    between atoms: _170  and  _171
REMARK   76  A    between atoms: _170  and  _173
REMARK   77  A    between atoms: _173  and  _174
REMARK   78  A    between atoms: _177  and  _179
REMARK   79  A    between atoms: _179  and  _180
REMARK   80  A    between atoms: _179  and  _182
REMARK   81  A    between atoms: _182  and  _183
REMARK   82  A    between atoms: _185  and  _187
REMARK   83  A    between atoms: _187  and  _188
REMARK   84  A    between atoms: _187  and  _190
REMARK   85  A    between atoms: _190  and  _191
REMARK   86  A    between atoms: _201  and  _203
REMARK   87  A    between atoms: _203  and  _204
REMARK   88  A    between atoms: _206  and  _208
REMARK   89  A    between atoms: _208  and  _209
REMARK   90  A    between atoms: _208  and  _211
REMARK   91  A    between atoms: _211  and  _212
REMARK   92  A    between atoms: _215  and  _217
REMARK   93  A    between atoms: _217  and  _218
REMARK   94  A    between atoms: _220  and  _222
REMARK   95  A    between atoms: _222  and  _223
REMARK   96  A    between atoms: _222  and  _225
REMARK   97  A    between atoms: _225  and  _226
REMARK   98  A    between atoms: _227  and  _229
REMARK   99  A    between atoms: _229  and  _230
REMARK  100  A    between atoms: _232  and  _234
REMARK  101  A    between atoms: _234  and  _235
REMARK  102  A    between atoms: _234  and  _237
REMARK  103  A    between atoms: _237  and  _238
REMARK  104  A    between atoms: _238  and  _239
REMARK  105  A    between atoms: _244  and  _246
REMARK  106  A    between atoms: _246  and  _247
REMARK  107  A    between atoms: _246  and  _249
REMARK  108  A    between atoms: _253  and  _254
REMARK  109  A    between atoms: _259  and  _261
REMARK  110  A    between atoms: _261  and  _262
REMARK  111  A    between atoms: _264  and  _266
REMARK  112  A    between atoms: _266  and  _267
REMARK  113  A    between atoms: _266  and  _269
REMARK  114  A    between atoms: _272  and  _274
REMARK  115  A    between atoms: _274  and  _275
REMARK  116  A    between atoms: _274  and  _277
REMARK  117  A    between atoms: _277  and  _278
REMARK  118  A    between atoms: _283  and  _284
REMARK                            x       y       z     vdW  Elec       q    Type
REMARK                         _______ _______ _______ _____ _____    ______ ____
ROOT
ATOM      1  CA  ALA A   1     -14.355  28.092  31.023  0.00  0.00    +0.133 C 
ATOM      2  CB  ALA A   1     -14.542  29.551  31.457  0.00  0.00    +0.027 C 
ENDROOT
BRANCH   1   3
ATOM      3  N   ALA A   1     -13.971  28.038  29.621  0.00  0.00    -0.239 NA
ATOM      4  H   ALA A   1     -13.920  28.925  29.080  0.00  0.00    +0.142 HD
ENDBRANCH   1   3
BRANCH   1   5
ATOM      5  C   ALA A   1     -15.615  27.284  31.322  0.00  0.00    +0.224 C 
ATOM      6  O   ALA A   1     -15.690  26.620  32.355  0.00  0.00    -0.287 OA
ENDBRANCH   1   5
TORSDOF 2
REMARK  Name = ../refined-set-2016/1rtf/1rtf_pocket.pdb
REMARK  118 active torsions:
REMARK  status: ('A' for Active; 'I' for Inactive)
REMARK    1  A    between atoms: _1  and  _3
REMARK    2  A    between atoms: _3  and  _4
REMARK    3  A    between atoms: _3  and  _6
REMARK    4  A    between atoms: _6  and  _7
REMARK    5  A    between atoms: _7  and  _8
REMARK    6  A    between atoms: _8  and  _9
REMARK    7  A    between atoms: _9  and  _10
REMARK    8  A    between atoms: _14  and  _16
REMARK    9  A    between atoms: _16  and  _17
REMARK   10  A    between atoms: _16  and  _19
REMARK   11  A    between atoms: _19  and  _20
REMARK   12  A    between atoms: _25  and  _27
REMARK   13  A    between atoms: _27  and  _28
REMARK   14  A    between atoms: _27  and  _30
REMARK   15  A    between atoms: _30  and  _31
REMARK   16  A    between atoms: _36  and  _37
REMARK   17  A    between atoms: _39  and  _41
REMARK   18  A    between atoms: _41  and  _42
REMARK   19  A    between atoms: _41  and  _44
REMARK   20  A    between atoms: _44  and  _45
REMARK   21  A    between atoms: _48  and  _50
REMARK   22  A    between atoms: _50  and  _51
REMARK   23  A    between atoms: _50  and  _53
REMARK   24  A    between atoms: _53  and  _54
REMARK   25  A    between atoms: _57  and  _59
REMARK   26  A    between atoms: _59  and  _60
REMARK   27  A    between atoms: _59  and  _62
REMARK   28  A    between atoms: _62  and  _63
REMARK   29  A    between atoms: _63  and  _64
REMARK   30  A    between atoms: _64  and  _65
REMARK   31  A    between atoms: _65  and  _66
REMARK   32  A    between atoms: _70  and  _72
REMARK   33  A    between atoms: _72  and  _73
REMARK   34  A    between atoms: _76  and  _78
REMARK   35  A    between atoms: _78  and  _79
REMARK   36  A    between atoms: _82  and  _84
REMARK   37  A    between atoms: _84  and  _85
REMARK   38  A    between atoms: _84  and  _87
REMARK   39  A    between atoms: _87  and  _88
REMARK   40  A    between atoms: _93  and  _95
REMARK   41  A    between atoms: _95  and  _96
REMARK   42  A    between atoms: _95  and  _98
REMARK   43  A    between atoms: _98  and  _99
REMARK   44  A    between atoms: _102  and  _104
REMARK   45  A    between atoms: _104  and  _105
REMARK   46  A    between atoms: _108  and  _110
REMARK   47  A    between atoms: _110  and  _111
REMARK   48  A    between atoms: _110  and  _113
REMARK   49  A    between atoms: _113  and  _114
REMARK   50  A    between atoms: _114  and  _226
REMARK   51  A    between atoms: _115  and  _117
REMARK   52  A    between atoms: _117  and  _118
REMARK   53  A    between atoms: _117  and  _120
REMARK   54  A    between atoms: _120  and  _121
REMARK   55  A    between atoms: _121  and  _122
REMARK   56  A    between atoms: _127  and  _129
REMARK   57  A    between atoms: _129  and  _130
REMARK   58  A    between atoms: _132  and  _134
REMARK   59  A    between atoms: _134  and  _135
REMARK   60  A    between atoms: _134  and  _137
REMARK   61  A    between atoms: _137  and  _138
REMARK   62  A    between atoms: _141  and  _143
REMARK   63  A    between atoms: _143  and  _144
REMARK   64  A    between atoms: _143  and  _146
REMARK   65  A    between atoms: _146  and  _147
REMARK   66  A    between atoms: _149  and  _151
REMARK   67  A    between atoms: _151  and  _152
REMARK   68  A    between atoms: _154  and  _156
REMARK   69  A    between atoms: _156  and  _157
REMARK   70  A    between atoms: _159  and  _161
REMARK   71  A    between atoms: _161  and  _162
REMARK   72  A    between atoms: _161  and  _164
REMARK   73  A    between atoms: _164  and  _165
REMARK   74  A    between atoms: _168  and  _170
REMARK   75  A    between atoms: _170  and  _171
REMARK   76  A    between atoms: _170  and  _173
REMARK   77  A    between atoms: _173  and  _174
REMARK   78  A    between atoms: _177  and  _179
REMARK   79  A    between atoms: _179  and  _180
REMARK   80  A    between atoms: _179  and  _182
REMARK   81  A    between atoms: _182  and  _183
REMARK   82  A    between atoms: _185  and  _187
REMARK   83  A    between atoms: _187  and  _188
REMARK   84  A    between atoms: _187  and  _190
REMARK   85  A    between atoms: _190  and  _191
REMARK   86  A    between atoms: _201  and  _203
REMARK   87  A    between atoms: _203  and  _204
REMARK   88  A    between atoms: _206  and  _208
REMARK   89  A    between atoms: _208  and  _209
REMARK   90  A    between atoms: _208  and  _211
REMARK   91  A    between atoms: _211  and  _212
REMARK   92  A    between atoms: _215  and  _217
REMARK   93  A    between atoms: _217  and  _218
REMARK   94  A    between atoms: _220  and  _222
REMARK   95  A    between atoms: _222  and  _223
REMARK   96  A    between atoms: _222  and  _225
REMARK   97  A    between atoms: _225  and  _226
REMARK   98  A    between atoms: _227  and  _229
REMARK   99  A    between atoms: _229  and  _230
REMARK  100  A    between atoms: _232  and  _234
REMARK  101  A    between atoms: _234  and  _235
REMARK  102  A    between atoms: _234  and  _237
REMARK  103  A    between atoms: _237  and  _238
REMARK  104  A    between atoms: _238  and  _239
REMARK  105  A    between atoms: _244  and  _246
REMARK  106  A    between atoms: _246  and  _247
REMARK  107  A    between atoms: _246  and  _249
REMARK  108  A    between atoms: _253  and  _254
REMARK  109  A    between atoms: _259  and  _261
REMARK  110  A    between atoms: _261  and  _262
REMARK  111  A    between atoms: _264  and  _266
REMARK  112  A    between atoms: _266  and  _267
REMARK  113  A    between atoms: _266  and  _269
REMARK  114  A    between atoms: _272  and  _274
REMARK  115  A    between atoms: _274  and  _275
REMARK  116  A    between atoms: _274  and  _277
REMARK  117  A    between atoms: _277  and  _278
REMARK  118  A    between atoms: _283  and  _284
REMARK                            x       y       z     vdW  Elec       q    Type
REMARK                         _______ _______ _______ _____ _____    ______ ____
ROOT
ATOM      1  CA  ALA A   1       0.202  38.050  29.813  0.00  0.00    +0.133 C 
ATOM      2  CB  ALA A   1       1.176  36.885  29.831  0.00  0.00    +0.027 C 
ENDROOT
BRANCH   1   3
ATOM      3  N   ALA A   1      -0.173  38.407  31.166  0.00  0.00    -0.239 NA
ATOM      4  H   ALA A   1      -1.055  38.019  31.557  0.00  0.00    +0.142 HD
ENDBRANCH   1   3
BRANCH   1   5
ATOM      5  C   ALA A   1      -1.086  37.666  29.112  0.00  0.00    +0.224 C 
ATOM      6  O   ALA A   1      -1.977  37.074  29.724  0.00  0.00    -0.287 OA
ENDBRANCH   1   5
TORSDOF 2
REMARK  Name = ../refined-set-2016/1rtf/1rtf_pocket.pdb
REMARK  118 active torsions:
REMARK  status: ('A' for Active; 'I' for Inactive)
REMARK    1  A    between atoms: _1  and  _3
REMARK    2  A    between atoms: _3  and  _4
REMARK    3  A    between atoms: _3  and  _6
REMARK    4  A    between atoms: _6  and  _7
REMARK    5  A    between atoms: _7  and  _8
REMARK    6  A    between atoms: _8  and  _9
REMARK    7  A    between atoms: _9  and  _10
REMARK    8  A    between atoms: _14  and  _16
REMARK    9  A    between atoms: _16  and  _17
REMARK   10  A    between atoms: _16  and  _19
REMARK   11  A    between atoms: _19  and  _20
REMARK   12  A    between atoms: _25  and  _27
REMARK   13  A    between atoms: _27  and  _28
REMARK   14  A    between atoms: _27  and  _30
REMARK   15  A    between atoms: _30  and  _31
REMARK   16  A    between atoms: _36  and  _37
REMARK   17  A    between atoms: _39  and  _41
REMARK   18  A    between atoms: _41  and  _42
REMARK   19  A    between atoms: _41  and  _44
REMARK   20  A    between atoms: _44  and  _45
REMARK   21  A    between atoms: _48  and  _50
REMARK   22  A    between atoms: _50  and  _51
REMARK   23  A    between atoms: _50  and  _53
REMARK   24  A    between atoms: _53  and  _54
REMARK   25  A    between atoms: _57  and  _59
REMARK   26  A    between atoms: _59  and  _60
REMARK   27  A    between atoms: _59  and  _62
REMARK   28  A    between atoms: _62  and  _63
REMARK   29  A    between atoms: _63  and  _64
REMARK   30  A    between atoms: _64  and  _65
REMARK   31  A    between atoms: _65  and  _66
REMARK   32  A    between atoms: _70  and  _72
REMARK   33  A    between atoms: _72  and  _73
REMARK   34  A    between atoms: _76  and  _78
REMARK   35  A    between atoms: _78  and  _79
REMARK   36  A    between atoms: _82  and  _84
REMARK   37  A    between atoms: _84  and  _85
REMARK   38  A    between atoms: _84  and  _87
REMARK   39  A    between atoms: _87  and  _88
REMARK   40  A    between atoms: _93  and  _95
REMARK   41  A    between atoms: _95  and  _96
REMARK   42  A    between atoms: _95  and  _98
REMARK   43  A    between atoms: _98  and  _99
REMARK   44  A    between atoms: _102  and  _104
REMARK   45  A    between atoms: _104  and  _105
REMARK   46  A    between atoms: _108  and  _110
REMARK   47  A    between atoms: _110  and  _111
REMARK   48  A    between atoms: _110  and  _113
REMARK   49  A    between atoms: _113  and  _114
REMARK   50  A    between atoms: _114  and  _226
REMARK   51  A    between atoms: _115  and  _117
REMARK   52  A    between atoms: _117  and  _118
REMARK   53  A    between atoms: _117  and  _120
REMARK   54  A    between atoms: _120  and  _121
REMARK   55  A    between atoms: _121  and  _122
REMARK   56  A    between atoms: _127  and  _129
REMARK   57  A    between atoms: _129  and  _130
REMARK   58  A    between atoms: _132  and  _134
REMARK   59  A    between atoms: _134  and  _135
REMARK   60  A    between atoms: _134  and  _137
REMARK   61  A    between atoms: _137  and  _138
REMARK   62  A    between atoms: _141  and  _143
REMARK   63  A    between atoms: _143  and  _144
REMARK   64  A    between atoms: _143  and  _146
REMARK   65  A    between atoms: _146  and  _147
REMARK   66  A    between atoms: _149  and  _151
REMARK   67  A    between atoms: _151  and  _152
REMARK   68  A    between atoms: _154  and  _156
REMARK   69  A    between atoms: _156  and  _157
REMARK   70  A    between atoms: _159  and  _161
REMARK   71  A    between atoms: _161  and  _162
REMARK   72  A    between atoms: _161  and  _164
REMARK   73  A    between atoms: _164  and  _165
REMARK   74  A    between atoms: _168  and  _170
REMARK   75  A    between atoms: _170  and  _171
REMARK   76  A    between atoms: _170  and  _173
REMARK   77  A    between atoms: _173  and  _174
REMARK   78  A    between atoms: _177  and  _179
REMARK   79  A    between atoms: _179  and  _180
REMARK   80  A    between atoms: _179  and  _182
REMARK   81  A    between atoms: _182  and  _183
REMARK   82  A    between atoms: _185  and  _187
REMARK   83  A    between atoms: _187  and  _188
REMARK   84  A    between atoms: _187  and  _190
REMARK   85  A    between atoms: _190  and  _191
REMARK   86  A    between atoms: _201  and  _203
REMARK   87  A    between atoms: _203  and  _204
REMARK   88  A    between atoms: _206  and  _208
REMARK   89  A    between atoms: _208  and  _209
REMARK   90  A    between atoms: _208  and  _211
REMARK   91  A    between atoms: _211  and  _212
REMARK   92  A    between atoms: _215  and  _217
REMARK   93  A    between atoms: _217  and  _218
REMARK   94  A    between atoms: _220  and  _222
REMARK   95  A    between atoms: _222  and  _223
REMARK   96  A    between atoms: _222  and  _225
REMARK   97  A    between atoms: _225  and  _226
REMARK   98  A    between atoms: _227  and  _229
REMARK   99  A    between atoms: _229  and  _230
REMARK  100  A    between atoms: _232  and  _234
REMARK  101  A    between atoms: _234  and  _235
REMARK  102  A    between atoms: _234  and  _237
REMARK  103  A    between atoms: _237  and  _238
REMARK  104  A    between atoms: _238  and  _239
REMARK  105  A    between atoms: _244  and  _246
REMARK  106  A    between atoms: _246  and  _247
REMARK  107  A    between atoms: _246  and  _249
REMARK  108  A    between atoms: _253  and  _254
REMARK  109  A    between atoms: _259  and  _261
REMARK  110  A    between atoms: _261  and  _262
REMARK  111  A    between atoms: _264  and  _266
REMARK  112  A    between atoms: _266  and  _267
REMARK  113  A    between atoms: _266  and  _269
REMARK  114  A    between atoms: _272  and  _274
REMARK  115  A    between atoms: _274  and  _275
REMARK  116  A    between atoms: _274  and  _277
REMARK  117  A    between atoms: _277  and  _278
REMARK  118  A    between atoms: _283  and  _284
REMARK                            x       y       z     vdW  Elec       q    Type
REMARK                         _______ _______ _______ _____ _____    ______ ____
ROOT
ATOM      1  CA  CYS A   8     -10.672  32.190  29.752  0.00  0.00    +0.160 C 
ENDROOT
BRANCH   1   2
ATOM      2  C   CYS A   8     -10.733  32.810  28.377  0.00  0.00    +0.242 C 
ATOM      3  N   GLY A   9      -9.815  33.724  28.104  0.00  0.00    -0.295 N 
ATOM      4  H   GLY A   9      -9.122  33.996  28.830  0.00  0.00    +0.150 HD
ATOM      5  O   CYS A   8     -11.669  32.559  27.628  0.00  0.00    -0.273 OA
BRANCH   3   6
ATOM      6  CA  GLY A   9      -9.774  34.345  26.799  0.00  0.00    +0.176 C 
BRANCH   6   7
ATOM      7  C   GLY A   9     -10.675  35.532  26.518  0.00  0.00    +0.243 C 
ATOM      8  N   GLN A  10     -10.989  36.352  27.522  0.00  0.00    -0.298 N 
ATOM      9  H   GLN A  10     -10.656  36.158  28.488  0.00  0.00    +0.150 HD
ATOM     10  O   GLY A   9     -11.104  35.698  25.369  0.00  0.00    -0.273 OA
BRANCH   8  11
ATOM     11  CA  GLN A  10     -11.809  37.529  27.240  0.00  0.00    +0.137 C 
BRANCH  11  12
ATOM     12  C   GLN A  10     -10.944  38.695  26.798  0.00  0.00    +0.227 C 
ATOM     13  O   GLN A  10      -9.875  38.941  27.362  0.00  0.00    -0.286 OA
ENDBRANCH  11  12
BRANCH  11  14
ATOM     14  CB  GLN A  10     -12.718  37.929  28.394  0.00  0.00    +0.037 C 
BRANCH  14  15
ATOM     15  CG  GLN A  10     -12.296  37.513  29.753  0.00  0.00    +0.087 C 
BRANCH  15  16
ATOM     16  CD  GLN A  10     -13.506  37.164  30.588  0.00  0.00    +0.219 C 
ATOM     17  OE1 GLN A  10     -13.875  37.885  31.522  0.00  0.00    -0.275 OA
ATOM     18  NE2 GLN A  10     -14.168  36.067  30.224  0.00  0.00    -0.329 N 
ATOM     19 HE21 GLN A  10     -15.031  35.788  30.732  0.00  0.00    +0.145 HD
ATOM     20 HE22 GLN A  10     -13.821  35.489  29.432  0.00  0.00    +0.145 HD
ENDBRANCH  15  16
ENDBRANCH  14  15
ENDBRANCH  11  14
ENDBRANCH   8  11
ENDBRANCH   6   7
ENDBRANCH   3   6
ENDBRANCH   1   2
BRANCH   1  21
ATOM     21  N   CYS A   8     -11.800  32.691  30.531  0.00  0.00    -0.296 N 
ATOM     22  C   GLY A   7     -11.680  32.906  31.833  0.00  0.00    +0.243 C 
ATOM     23  O   GLY A   7     -10.640  32.658  32.451  0.00  0.00    -0.273 OA
ATOM     24  H   CYS A   8     -12.707  32.881  30.059  0.00  0.00    +0.150 HD
BRANCH  22  25
ATOM     25  CA  GLY A   7     -12.899  33.447  32.562  0.00  0.00    +0.176 C 
BRANCH  25  26
ATOM     26  N   GLY A   7     -12.433  34.156  33.738  0.00  0.00    -0.295 N 
ATOM     27  H   GLY A   7     -12.627  33.779  34.688  0.00  0.00    +0.150 HD
ATOM     28  C   LEU A   6     -11.757  35.289  33.595  0.00  0.00    +0.241 C 
ATOM     29  O   LEU A   6     -11.496  35.772  32.486  0.00  0.00    -0.273 OA
BRANCH  28  30
ATOM     30  CA  LEU A   6     -11.254  35.945  34.881  0.00  0.00    +0.149 C 
BRANCH  30  31
ATOM     31  N   LEU A   6      -9.815  35.733  34.890  0.00  0.00    -0.297 N 
ATOM     32  C   GLY A   5      -9.242  34.800  35.629  0.00  0.00    +0.243 C 
ATOM     33  O   GLY A   5      -9.881  34.059  36.378  0.00  0.00    -0.273 OA
ATOM     34  H   LEU A   6      -9.216  36.338  34.293  0.00  0.00    +0.150 HD
BRANCH  32  35
ATOM     35  CA  GLY A   5      -7.728  34.714  35.534  0.00  0.00    +0.176 C 
BRANCH  35  36
ATOM     36  N   GLY A   5      -7.202  33.833  36.551  0.00  0.00    -0.295 N 
ATOM     37  H   GLY A   5      -7.853  33.424  37.251  0.00  0.00    +0.150 HD
ATOM     38  C   TRP A   4      -5.914  33.532  36.617  0.00  0.00    +0.241 C 
ATOM     39  O   TRP A   4      -5.078  33.973  35.843  0.00  0.00    -0.273 OA
BRANCH  38  40
ATOM     40  CA  TRP A   4      -5.524  32.578  37.723  0.00  0.00    +0.153 C 
BRANCH  40  41
ATOM     41  N   TRP A   4      -4.095  32.318  37.795  0.00  0.00    -0.297 N 
ATOM     42  C   SER A   3      -3.637  31.196  38.344  0.00  0.00    +0.243 C 
ATOM     43  O   SER A   3      -4.380  30.335  38.806  0.00  0.00    -0.273 OA
ATOM     44  H   TRP A   4      -3.425  33.016  37.414  0.00  0.00    +0.150 HD
BRANCH  42  45
ATOM     45  CA  SER A   3      -2.125  31.000  38.400  0.00  0.00    +0.178 C 
BRANCH  45  46
ATOM     46  N   SER A   3      -1.454  30.857  37.114  0.00  0.00    -0.295 N 
ATOM     47  C   ILE A   2      -0.902  29.707  36.746  0.00  0.00    +0.241 C 
ATOM     48  O   ILE A   2      -0.955  28.694  37.439  0.00  0.00    -0.273 OA
ATOM     49  H   SER A   3      -1.407  31.673  36.471  0.00  0.00    +0.150 HD
BRANCH  47  50
ATOM     50  CA  ILE A   2      -0.145  29.693  35.414  0.00  0.00    +0.148 C 
BRANCH  50  51
ATOM     51  N   ILE A   2       1.263  29.433  35.718  0.00  0.00    -0.297 N 
ATOM     52  C   ILE A   1       1.977  30.165  36.580  0.00  0.00    +0.238 C 
ATOM     53  O   ILE A   1       1.558  31.207  37.097  0.00  0.00    -0.274 OA
ATOM     54  H   ILE A   2       1.732  28.638  35.239  0.00  0.00    +0.150 HD
BRANCH  52  55
ATOM     55  CA  ILE A   1       3.424  29.738  36.798  0.00  0.00    +0.145 C 
BRANCH  55  56
ATOM     56  CB  ILE A   1       3.599  29.274  38.285  0.00  0.00    +0.025 C 
ATOM     57  CG2 ILE A   1       2.791  28.009  38.557  0.00  0.00    +0.002 C 
BRANCH  56  58
ATOM     58  CG1 ILE A   1       5.085  29.032  38.602  0.00  0.00    +0.002 C 
ATOM     59  CD1 ILE A   1       5.333  28.417  39.954  0.00  0.00    +0.000 C 
ENDBRANCH  56  58
ENDBRANCH  55  56
BRANCH  55  60
ATOM     60  N   ILE A   1       4.184  30.948  36.493  0.00  0.00    -0.238 NA
ATOM     61  H   ILE A   1       4.122  31.754  37.147  0.00  0.00    +0.142 HD
ENDBRANCH  55  60
ENDBRANCH  52  55
ENDBRANCH  50  51
BRANCH  50  62
ATOM     62  CB  ILE A   2      -0.695  28.602  34.472  0.00  0.00    +0.027 C 
ATOM     63  CG2 ILE A   2      -2.155  28.856  34.195  0.00  0.00    +0.002 C 
BRANCH  62  64
ATOM     64  CG1 ILE A   2       0.108  28.610  33.163  0.00  0.00    +0.002 C 
ATOM     65  CD1 ILE A   2      -0.198  27.484  32.186  0.00  0.00    +0.000 C 
ENDBRANCH  62  64
ENDBRANCH  50  62
ENDBRANCH  47  50
ENDBRANCH  45  46
BRANCH  45  66
ATOM     66  CB  SER A   3      -1.450  32.141  39.193  0.00  0.00    +0.166 C 
BRANCH  66  67
ATOM     67  OG  SER A   3      -1.880  32.213  40.541  0.00  0.00    -0.380 OA
ATOM     68  H   SER A   3      -1.667  31.362  41.000  0.00  0.00    +0.211 HD
ENDBRANCH  66  67
ENDBRANCH  45  66
ENDBRANCH  42  45
ENDBRANCH  40  41
BRANCH  40  69
ATOM     69  CB  TRP A   4      -6.079  33.082  39.065  0.00  0.00    +0.057 C 
BRANCH  69  70
ATOM     70  CG  TRP A   4      -5.499  34.377  39.579  0.00  0.00    -0.002 A 
ATOM     71  CD1 TRP A   4      -4.329  34.540  40.279  0.00  0.00    +0.068 A 
ATOM     72  NE1 TRP A   4      -4.122  35.868  40.559  0.00  0.00    -0.352 N 
ATOM     73  HE1 TRP A   4      -3.307  36.258  41.074  0.00  0.00    +0.166 HD
ATOM     74  CE2 TRP A   4      -5.164  36.596  40.050  0.00  0.00    +0.056 A 
ATOM     75  CZ2 TRP A   4      -5.399  37.968  40.082  0.00  0.00    +0.017 A 
ATOM     76  CH2 TRP A   4      -6.545  38.424  39.482  0.00  0.00    +0.001 A 
ATOM     77  CZ3 TRP A   4      -7.455  37.546  38.862  0.00  0.00    +0.000 A 
ATOM     78  CE3 TRP A   4      -7.222  36.183  38.832  0.00  0.00    +0.001 A 
ATOM     79  CD2 TRP A   4      -6.058  35.686  39.430  0.00  0.00    +0.013 A 
ENDBRANCH  69  70
ENDBRANCH  40  69
ENDBRANCH  38  40
ENDBRANCH  35  36
ENDBRANCH  32  35
ENDBRANCH  30  31
BRANCH  30  80
ATOM     80  CB  LEU A   6     -11.535  37.452  34.897  0.00  0.00    +0.029 C 
BRANCH  80  81
ATOM     81  CG  LEU A   6     -10.742  38.208  35.971  0.00  0.00    +0.002 C 
ATOM     82  CD2 LEU A   6     -11.226  37.875  37.364  0.00  0.00    +0.000 C 
ATOM     83  CD1 LEU A   6     -10.829  39.678  35.707  0.00  0.00    +0.000 C 
ENDBRANCH  80  81
ENDBRANCH  30  80
ENDBRANCH  28  30
ENDBRANCH  25  26
ENDBRANCH  22  25
ENDBRANCH   1  21
BRANCH   1  84
ATOM     84  CB  CYS A   8     -10.703  30.663  29.617  0.00  0.00    +0.098 C 
BRANCH  84  85
ATOM     85  SG  CYS A   8     -10.583  29.712  31.165  0.00  0.00    -0.080 S 
BRANCH  85  86
ATOM     86  SG  TRP A   4     -10.449  27.805  30.471  0.00  0.00    -0.080 S 
BRANCH  86  87
ATOM     87  CB  TRP A   4      -8.655  27.506  30.347  0.00  0.00    +0.098 C 
BRANCH  87  88
ATOM     88  CA  TRP A   4      -7.810  28.054  31.512  0.00  0.00    +0.160 C 
BRANCH  88  89
ATOM     89  C   TRP A   4      -7.730  27.071  32.674  0.00  0.00    +0.242 C 
ATOM     90  N   GLY A   5      -8.854  26.823  33.331  0.00  0.00    -0.297 N 
ATOM     91  H   GLY A   5      -9.727  27.294  33.019  0.00  0.00    +0.150 HD
ATOM     92  O   TRP A   4      -6.649  26.574  32.987  0.00  0.00    -0.273 OA
BRANCH  90  93
ATOM     93  CA  GLY A   5      -8.919  25.917  34.475  0.00  0.00    +0.149 C 
BRANCH  93  94
ATOM     94  C   GLY A   5      -8.350  24.570  34.126  0.00  0.00    +0.241 C 
ATOM     95  N   LEU A   6      -7.456  24.084  34.974  0.00  0.00    -0.295 N 
ATOM     96  H   LEU A   6      -7.214  24.629  35.826  0.00  0.00    +0.150 HD
ATOM     97  O   GLY A   5      -8.740  23.966  33.127  0.00  0.00    -0.273 OA
BRANCH  95  98
ATOM     98  CA  LEU A   6      -6.806  22.807  34.741  0.00  0.00    +0.176 C 
BRANCH  98  99
ATOM     99  C   LEU A   6      -5.378  23.002  34.265  0.00  0.00    +0.243 C 
ATOM    100  O   LEU A   6      -4.573  22.071  34.283  0.00  0.00    -0.273 OA
ATOM    101  N   GLY A   7      -5.071  24.208  33.797  0.00  0.00    -0.296 N 
ATOM    102  H   GLY A   7      -5.811  24.938  33.762  0.00  0.00    +0.150 HD
BRANCH 101 103
ATOM    103  CA  GLY A   7      -3.725  24.541  33.330  0.00  0.00    +0.160 C 
BRANCH 103 104
ATOM    104  C   GLY A   7      -2.878  25.085  34.454  0.00  0.00    +0.241 C 
ATOM    105  N   CYS A   8      -3.521  25.423  35.565  0.00  0.00    -0.295 N 
ATOM    106  H   CYS A   8      -4.552  25.297  35.611  0.00  0.00    +0.150 HD
ATOM    107  O   GLY A   7      -1.663  25.189  34.320  0.00  0.00    -0.273 OA
BRANCH 105 108
ATOM    108  CA  CYS A   8      -2.826  25.961  36.712  0.00  0.00    +0.178 C 
BRANCH 108 109
ATOM    109  C   CYS A   8      -1.639  25.100  37.089  0.00  0.00    +0.243 C 
ATOM    110  N   GLY A   9      -0.572  25.767  37.528  0.00  0.00    -0.295 N 
ATOM    111  H   GLY A   9      -0.610  26.805  37.577  0.00  0.00    +0.150 HD
ATOM    112  O   CYS A   8      -1.700  23.862  36.990  0.00  0.00    -0.273 OA
BRANCH 110 113
ATOM    113  CA  GLY A   9       0.638  25.088  37.938  0.00  0.00    +0.176 C 
BRANCH 113 114
ATOM    114  C   GLY A   9       1.593  24.862  36.794  0.00  0.00    +0.243 C 
ATOM    115  O   GLY A   9       2.746  24.501  37.030  0.00  0.00    -0.273 OA
ATOM    116  N   GLN A  10       1.096  25.046  35.569  0.00  0.00    -0.296 N 
ATOM    117  H   GLN A  10       0.100  25.328  35.473  0.00  0.00    +0.150 HD
BRANCH 116 118
ATOM    118  CA  GLN A  10       1.886  24.869  34.366  0.00  0.00    +0.163 C 
BRANCH 118 119
ATOM    119  C   GLN A  10       2.825  26.031  34.074  0.00  0.00    +0.229 C 
ATOM    120  O   GLN A  10       2.753  27.076  34.720  0.00  0.00    -0.286 OA
ENDBRANCH 118 119
ENDBRANCH 116 118
ENDBRANCH 113 114
ENDBRANCH 110 113
ENDBRANCH 108 109
BRANCH 108 121
ATOM    121  CB  CYS A   8      -3.768  26.086  37.908  0.00  0.00    +0.166 C 
BRANCH 121 122
ATOM    122  O   CYS A   8      -4.768  27.033  37.632  0.00  0.00    -0.380 OA
ATOM    123  H   CYS A   8      -5.374  27.108  38.411  0.00  0.00    +0.211 HD
ENDBRANCH 121 122
ENDBRANCH 108 121
ENDBRANCH 105 108
ENDBRANCH 103 104
BRANCH 103 124
ATOM    124  CB  GLY A   7      -3.770  25.579  32.205  0.00  0.00    +0.143 C 
BRANCH 124 125
ATOM    125  CG  GLY A   7      -4.328  25.017  30.925  0.00  0.00    +0.367 C 
ATOM    126  OD2 GLY A   7      -4.016  23.854  30.619  0.00  0.00    -0.246 OA
ATOM    127  OD1 GLY A   7      -5.079  25.731  30.229  0.00  0.00    -0.246 OA
ENDBRANCH 124 125
ENDBRANCH 103 124
ENDBRANCH 101 103
ENDBRANCH  98  99
ENDBRANCH  95  98
ENDBRANCH  93  94
BRANCH  93 128
ATOM    128  CB  GLY A   5     -10.364  25.757  34.904  0.00  0.00    +0.039 C 
BRANCH 128 129
ATOM    129  CG  GLY A   5     -11.073  27.090  35.031  0.00  0.00    +0.087 C 
BRANCH 129 130
ATOM    130  CD  GLY A   5     -12.563  26.946  35.186  0.00  0.00    +0.219 C 
ATOM    131  OE1 GLY A   5     -13.051  25.902  35.596  0.00  0.00    -0.275 OA
ATOM    132  NE2 GLY A   5     -13.296  28.000  34.879  0.00  0.00    -0.329 N 
ATOM    133 HE21 GLY A   5     -14.330  27.962  34.983  0.00  0.00    +0.145 HD
ATOM    134 HE22 GLY A   5     -12.839  28.868  34.534  0.00  0.00    +0.145 HD
ENDBRANCH 129 130
ENDBRANCH 128 129
ENDBRANCH  93 128
ENDBRANCH  90  93
ENDBRANCH  88  89
BRANCH  88 136
ATOM    135  C   SER A   3      -6.114  29.398  30.450  0.00  0.00    +0.241 C 
ATOM    136  N   TRP A   4      -6.443  28.279  31.072  0.00  0.00    -0.296 N 
ATOM    137  H   TRP A   4      -5.718  27.554  31.248  0.00  0.00    +0.150 HD
ATOM    138  O   SER A   3      -6.943  30.275  30.215  0.00  0.00    -0.273 OA
BRANCH 135 139
ATOM    139  CA  SER A   3      -4.648  29.571  30.010  0.00  0.00    +0.149 C 
ATOM    140  CB  SER A   3      -3.736  29.846  31.220  0.00  0.00    +0.031 C 
BRANCH 139 142
ATOM    141  C   ILE A   2      -5.125  30.699  27.897  0.00  0.00    +0.241 C 
ATOM    142  N   SER A   3      -4.715  30.745  29.162  0.00  0.00    -0.297 N 
ATOM    143  H   SER A   3      -4.430  31.663  29.560  0.00  0.00    +0.150 HD
ATOM    144  O   ILE A   2      -5.326  29.646  27.270  0.00  0.00    -0.273 OA
BRANCH 141 145
ATOM    145  CA  ILE A   2      -5.205  32.044  27.201  0.00  0.00    +0.160 C 
BRANCH 145 147
ATOM    146  C   ILE A   1      -5.194  32.755  24.890  0.00  0.00    +0.239 C 
ATOM    147  N   ILE A   2      -5.231  31.776  25.777  0.00  0.00    -0.297 N 
ATOM    148  H   ILE A   2      -5.280  30.791  25.446  0.00  0.00    +0.150 HD
ATOM    149  O   ILE A   1      -5.069  33.931  25.205  0.00  0.00    -0.274 OA
BRANCH 146 150
ATOM    150  CA  ILE A   1      -5.229  32.350  23.436  0.00  0.00    +0.151 C 
BRANCH 150 151
ATOM    151  N   ILE A   1      -5.928  33.355  22.665  0.00  0.00    -0.238 NA
ATOM    152  H   ILE A   1      -5.382  34.068  22.141  0.00  0.00    +0.142 HD
ENDBRANCH 150 151
BRANCH 150 153
ATOM    153  CB  ILE A   1      -3.800  32.211  22.934  0.00  0.00    +0.074 C 
BRANCH 153 154
ATOM    154  CG  ILE A   1      -3.696  31.815  21.499  0.00  0.00    +0.082 A 
ATOM    155  ND1 ILE A   1      -2.616  31.108  21.029  0.00  0.00    -0.227 NA
ATOM    156  CE1 ILE A   1      -2.837  30.928  19.743  0.00  0.00    +0.199 A 
ATOM    157  NE2 ILE A   1      -4.000  31.480  19.365  0.00  0.00    -0.221 NA
ATOM    158  CD2 ILE A   1      -4.555  32.050  20.482  0.00  0.00    +0.115 A 
ENDBRANCH 153 154
ENDBRANCH 150 153
ENDBRANCH 146 150
ENDBRANCH 145 147
BRANCH 145 159
ATOM    159  CB  ILE A   2      -6.500  32.770  27.640  0.00  0.00    +0.143 C 
BRANCH 159 160
ATOM    160  CG  ILE A   2      -6.408  33.403  29.043  0.00  0.00    +0.367 C 
ATOM    161  OD2 ILE A   2      -5.323  33.440  29.659  0.00  0.00    -0.246 OA
ATOM    162  OD1 ILE A   2      -7.437  33.894  29.542  0.00  0.00    -0.246 OA
ENDBRANCH 159 160
ENDBRANCH 145 159
ENDBRANCH 141 145
ENDBRANCH 139 142
ENDBRANCH 135 139
ENDBRANCH  88 136
ENDBRANCH  87  88
ENDBRANCH  86  87
ENDBRANCH  85  86
ENDBRANCH  84  85
ENDBRANCH   1  84
TORSDOF 69
REMARK  Name = ../refined-set-2016/1rtf/1rtf_pocket.pdb
REMARK  118 active torsions:
REMARK  status: ('A' for Active; 'I' for Inactive)
REMARK    1  A    between atoms: _1  and  _3
REMARK    2  A    between atoms: _3  and  _4
REMARK    3  A    between atoms: _3  and  _6
REMARK    4  A    between atoms: _6  and  _7
REMARK    5  A    between atoms: _7  and  _8
REMARK    6  A    between atoms: _8  and  _9
REMARK    7  A    between atoms: _9  and  _10
REMARK    8  A    between atoms: _14  and  _16
REMARK    9  A    between atoms: _16  and  _17
REMARK   10  A    between atoms: _16  and  _19
REMARK   11  A    between atoms: _19  and  _20
REMARK   12  A    between atoms: _25  and  _27
REMARK   13  A    between atoms: _27  and  _28
REMARK   14  A    between atoms: _27  and  _30
REMARK   15  A    between atoms: _30  and  _31
REMARK   16  A    between atoms: _36  and  _37
REMARK   17  A    between atoms: _39  and  _41
REMARK   18  A    between atoms: _41  and  _42
REMARK   19  A    between atoms: _41  and  _44
REMARK   20  A    between atoms: _44  and  _45
REMARK   21  A    between atoms: _48  and  _50
REMARK   22  A    between atoms: _50  and  _51
REMARK   23  A    between atoms: _50  and  _53
REMARK   24  A    between atoms: _53  and  _54
REMARK   25  A    between atoms: _57  and  _59
REMARK   26  A    between atoms: _59  and  _60
REMARK   27  A    between atoms: _59  and  _62
REMARK   28  A    between atoms: _62  and  _63
REMARK   29  A    between atoms: _63  and  _64
REMARK   30  A    between atoms: _64  and  _65
REMARK   31  A    between atoms: _65  and  _66
REMARK   32  A    between atoms: _70  and  _72
REMARK   33  A    between atoms: _72  and  _73
REMARK   34  A    between atoms: _76  and  _78
REMARK   35  A    between atoms: _78  and  _79
REMARK   36  A    between atoms: _82  and  _84
REMARK   37  A    between atoms: _84  and  _85
REMARK   38  A    between atoms: _84  and  _87
REMARK   39  A    between atoms: _87  and  _88
REMARK   40  A    between atoms: _93  and  _95
REMARK   41  A    between atoms: _95  and  _96
REMARK   42  A    between atoms: _95  and  _98
REMARK   43  A    between atoms: _98  and  _99
REMARK   44  A    between atoms: _102  and  _104
REMARK   45  A    between atoms: _104  and  _105
REMARK   46  A    between atoms: _108  and  _110
REMARK   47  A    between atoms: _110  and  _111
REMARK   48  A    between atoms: _110  and  _113
REMARK   49  A    between atoms: _113  and  _114
REMARK   50  A    between atoms: _114  and  _226
REMARK   51  A    between atoms: _115  and  _117
REMARK   52  A    between atoms: _117  and  _118
REMARK   53  A    between atoms: _117  and  _120
REMARK   54  A    between atoms: _120  and  _121
REMARK   55  A    between atoms: _121  and  _122
REMARK   56  A    between atoms: _127  and  _129
REMARK   57  A    between atoms: _129  and  _130
REMARK   58  A    between atoms: _132  and  _134
REMARK   59  A    between atoms: _134  and  _135
REMARK   60  A    between atoms: _134  and  _137
REMARK   61  A    between atoms: _137  and  _138
REMARK   62  A    between atoms: _141  and  _143
REMARK   63  A    between atoms: _143  and  _144
REMARK   64  A    between atoms: _143  and  _146
REMARK   65  A    between atoms: _146  and  _147
REMARK   66  A    between atoms: _149  and  _151
REMARK   67  A    between atoms: _151  and  _152
REMARK   68  A    between atoms: _154  and  _156
REMARK   69  A    between atoms: _156  and  _157
REMARK   70  A    between atoms: _159  and  _161
REMARK   71  A    between atoms: _161  and  _162
REMARK   72  A    between atoms: _161  and  _164
REMARK   73  A    between atoms: _164  and  _165
REMARK   74  A    between atoms: _168  and  _170
REMARK   75  A    between atoms: _170  and  _171
REMARK   76  A    between atoms: _170  and  _173
REMARK   77  A    between atoms: _173  and  _174
REMARK   78  A    between atoms: _177  and  _179
REMARK   79  A    between atoms: _179  and  _180
REMARK   80  A    between atoms: _179  and  _182
REMARK   81  A    between atoms: _182  and  _183
REMARK   82  A    between atoms: _185  and  _187
REMARK   83  A    between atoms: _187  and  _188
REMARK   84  A    between atoms: _187  and  _190
REMARK   85  A    between atoms: _190  and  _191
REMARK   86  A    between atoms: _201  and  _203
REMARK   87  A    between atoms: _203  and  _204
REMARK   88  A    between atoms: _206  and  _208
REMARK   89  A    between atoms: _208  and  _209
REMARK   90  A    between atoms: _208  and  _211
REMARK   91  A    between atoms: _211  and  _212
REMARK   92  A    between atoms: _215  and  _217
REMARK   93  A    between atoms: _217  and  _218
REMARK   94  A    between atoms: _220  and  _222
REMARK   95  A    between atoms: _222  and  _223
REMARK   96  A    between atoms: _222  and  _225
REMARK   97  A    between atoms: _225  and  _226
REMARK   98  A    between atoms: _227  and  _229
REMARK   99  A    between atoms: _229  and  _230
REMARK  100  A    between atoms: _232  and  _234
REMARK  101  A    between atoms: _234  and  _235
REMARK  102  A    between atoms: _234  and  _237
REMARK  103  A    between atoms: _237  and  _238
REMARK  104  A    between atoms: _238  and  _239
REMARK  105  A    between atoms: _244  and  _246
REMARK  106  A    between atoms: _246  and  _247
REMARK  107  A    between atoms: _246  and  _249
REMARK  108  A    between atoms: _253  and  _254
REMARK  109  A    between atoms: _259  and  _261
REMARK  110  A    between atoms: _261  and  _262
REMARK  111  A    between atoms: _264  and  _266
REMARK  112  A    between atoms: _266  and  _267
REMARK  113  A    between atoms: _266  and  _269
REMARK  114  A    between atoms: _272  and  _274
REMARK  115  A    between atoms: _274  and  _275
REMARK  116  A    between atoms: _274  and  _277
REMARK  117  A    between atoms: _277  and  _278
REMARK  118  A    between atoms: _283  and  _284
REMARK                            x       y       z     vdW  Elec       q    Type
REMARK                         _______ _______ _______ _____ _____    ______ ____
ROOT
ATOM      1  C   GLY A   3      -3.124  36.426  33.499  0.00  0.00    +0.243 C 
ATOM      2  N   VAL A   4      -3.203  35.870  34.704  0.00  0.00    -0.297 N 
ATOM      3  H   VAL A   4      -3.954  35.179  34.904  0.00  0.00    +0.150 HD
ATOM      4  O   GLY A   3      -2.283  37.291  33.218  0.00  0.00    -0.273 OA
ENDROOT
BRANCH   1   5
ATOM      5  CA  GLY A   3      -4.150  36.001  32.461  0.00  0.00    +0.176 C 
BRANCH   5   8
ATOM      6  C   PRO A   2      -5.031  38.090  31.687  0.00  0.00    +0.241 C 
ATOM      7  O   PRO A   2      -5.852  38.114  32.613  0.00  0.00    -0.273 OA
ATOM      8  N   GLY A   3      -4.190  37.080  31.500  0.00  0.00    -0.295 N 
ATOM      9  H   GLY A   3      -3.565  37.065  30.669  0.00  0.00    +0.150 HD
BRANCH   6  15
ATOM     10  C   VAL A   1      -7.350  39.731  30.110  0.00  0.00    +0.241 C 
ATOM     11  N   PRO A   2      -6.162  40.088  30.648  0.00  0.00    -0.272 N 
ATOM     12  CD  PRO A   2      -5.873  41.378  31.319  0.00  0.00    +0.094 C 
ATOM     13  CG  PRO A   2      -4.469  41.197  31.849  0.00  0.00    +0.024 C 
ATOM     14  CB  PRO A   2      -3.844  40.186  30.915  0.00  0.00    +0.031 C 
ATOM     15  CA  PRO A   2      -4.989  39.210  30.651  0.00  0.00    +0.152 C 
ATOM     16  O   VAL A   1      -7.529  38.632  29.566  0.00  0.00    -0.273 OA
BRANCH  10  17
ATOM     17  CA  VAL A   1      -8.483  40.764  30.170  0.00  0.00    +0.145 C 
BRANCH  17  18
ATOM     18  CB  VAL A   1      -9.771  40.137  30.705  0.00  0.00    +0.025 C 
ATOM     19  CG2 VAL A   1      -9.588  39.755  32.162  0.00  0.00    +0.002 C 
ATOM     20  CG1 VAL A   1     -10.919  41.127  30.558  0.00  0.00    +0.002 C 
ENDBRANCH  17  18
BRANCH  17  21
ATOM     21  N   VAL A   1      -8.650  41.261  28.808  0.00  0.00    -0.238 NA
ATOM     22  H   VAL A   1      -9.198  40.699  28.126  0.00  0.00    +0.142 HD
ENDBRANCH  17  21
ENDBRANCH  10  17
ENDBRANCH   6  15
ENDBRANCH   5   8
ENDBRANCH   1   5
BRANCH   2  23
ATOM     23  CA  VAL A   4      -2.251  36.219  35.742  0.00  0.00    +0.149 C 
BRANCH  23  24
ATOM     24  C   VAL A   4      -1.380  35.005  36.064  0.00  0.00    +0.241 C 
ATOM     25  N   TYR A   5      -0.110  35.286  36.341  0.00  0.00    -0.298 N 
ATOM     26  H   TYR A   5       0.180  36.284  36.367  0.00  0.00    +0.150 HD
ATOM     27  O   VAL A   4      -1.849  33.851  36.064  0.00  0.00    -0.273 OA
BRANCH  25  28
ATOM     28  CA  TYR A   5       0.894  34.270  36.609  0.00  0.00    +0.141 C 
BRANCH  28  29
ATOM     29  C   TYR A   5       1.731  34.653  37.794  0.00  0.00    +0.227 C 
ATOM     30  O   TYR A   5       1.920  35.828  38.075  0.00  0.00    -0.286 OA
ENDBRANCH  28  29
BRANCH  28  31
ATOM     31  CB  TYR A   5       1.835  34.136  35.394  0.00  0.00    +0.054 C 
BRANCH  31  32
ATOM     32  CG  TYR A   5       1.127  33.810  34.089  0.00  0.00    -0.020 A 
ATOM     33  CD2 TYR A   5       1.107  32.508  33.588  0.00  0.00    -0.001 A 
ATOM     34  CE2 TYR A   5       0.403  32.195  32.404  0.00  0.00    +0.036 A 
ATOM     35  CZ  TYR A   5      -0.280  33.200  31.735  0.00  0.00    +0.134 A 
ATOM     36  CE1 TYR A   5      -0.266  34.500  32.213  0.00  0.00    +0.036 A 
ATOM     37  CD1 TYR A   5       0.436  34.798  33.379  0.00  0.00    -0.001 A 
BRANCH  35  38
ATOM     38  OH  TYR A   5      -0.991  32.906  30.603  0.00  0.00    -0.506 OA
ATOM     39  HH  TYR A   5      -1.413  33.732  30.256  0.00  0.00    +0.292 HD
ENDBRANCH  35  38
ENDBRANCH  31  32
ENDBRANCH  28  31
ENDBRANCH  25  28
ENDBRANCH  23  24
BRANCH  23  40
ATOM     40  CB  VAL A   4      -2.939  36.756  36.996  0.00  0.00    +0.027 C 
ATOM     41  CG2 VAL A   4      -1.907  37.363  37.926  0.00  0.00    +0.002 C 
ATOM     42  CG1 VAL A   4      -4.009  37.781  36.608  0.00  0.00    +0.002 C 
ENDBRANCH  23  40
ENDBRANCH   2  23
TORSDOF 14
REMARK  Name = ../refined-set-2016/1rtf/1rtf_pocket.pdb
REMARK  118 active torsions:
REMARK  status: ('A' for Active; 'I' for Inactive)
REMARK    1  A    between atoms: _1  and  _3
REMARK    2  A    between atoms: _3  and  _4
REMARK    3  A    between atoms: _3  and  _6
REMARK    4  A    between atoms: _6  and  _7
REMARK    5  A    between atoms: _7  and  _8
REMARK    6  A    between atoms: _8  and  _9
REMARK    7  A    between atoms: _9  and  _10
REMARK    8  A    between atoms: _14  and  _16
REMARK    9  A    between atoms: _16  and  _17
REMARK   10  A    between atoms: _16  and  _19
REMARK   11  A    between atoms: _19  and  _20
REMARK   12  A    between atoms: _25  and  _27
REMARK   13  A    between atoms: _27  and  _28
REMARK   14  A    between atoms: _27  and  _30
REMARK   15  A    between atoms: _30  and  _31
REMARK   16  A    between atoms: _36  and  _37
REMARK   17  A    between atoms: _39  and  _41
REMARK   18  A    between atoms: _41  and  _42
REMARK   19  A    between atoms: _41  and  _44
REMARK   20  A    between atoms: _44  and  _45
REMARK   21  A    between atoms: _48  and  _50
REMARK   22  A    between atoms: _50  and  _51
REMARK   23  A    between atoms: _50  and  _53
REMARK   24  A    between atoms: _53  and  _54
REMARK   25  A    between atoms: _57  and  _59
REMARK   26  A    between atoms: _59  and  _60
REMARK   27  A    between atoms: _59  and  _62
REMARK   28  A    between atoms: _62  and  _63
REMARK   29  A    between atoms: _63  and  _64
REMARK   30  A    between atoms: _64  and  _65
REMARK   31  A    between atoms: _65  and  _66
REMARK   32  A    between atoms: _70  and  _72
REMARK   33  A    between atoms: _72  and  _73
REMARK   34  A    between atoms: _76  and  _78
REMARK   35  A    between atoms: _78  and  _79
REMARK   36  A    between atoms: _82  and  _84
REMARK   37  A    between atoms: _84  and  _85
REMARK   38  A    between atoms: _84  and  _87
REMARK   39  A    between atoms: _87  and  _88
REMARK   40  A    between atoms: _93  and  _95
REMARK   41  A    between atoms: _95  and  _96
REMARK   42  A    between atoms: _95  and  _98
REMARK   43  A    between atoms: _98  and  _99
REMARK   44  A    between atoms: _102  and  _104
REMARK   45  A    between atoms: _104  and  _105
REMARK   46  A    between atoms: _108  and  _110
REMARK   47  A    between atoms: _110  and  _111
REMARK   48  A    between atoms: _110  and  _113
REMARK   49  A    between atoms: _113  and  _114
REMARK   50  A    between atoms: _114  and  _226
REMARK   51  A    between atoms: _115  and  _117
REMARK   52  A    between atoms: _117  and  _118
REMARK   53  A    between atoms: _117  and  _120
REMARK   54  A    between atoms: _120  and  _121
REMARK   55  A    between atoms: _121  and  _122
REMARK   56  A    between atoms: _127  and  _129
REMARK   57  A    between atoms: _129  and  _130
REMARK   58  A    between atoms: _132  and  _134
REMARK   59  A    between atoms: _134  and  _135
REMARK   60  A    between atoms: _134  and  _137
REMARK   61  A    between atoms: _137  and  _138
REMARK   62  A    between atoms: _141  and  _143
REMARK   63  A    between atoms: _143  and  _144
REMARK   64  A    between atoms: _143  and  _146
REMARK   65  A    between atoms: _146  and  _147
REMARK   66  A    between atoms: _149  and  _151
REMARK   67  A    between atoms: _151  and  _152
REMARK   68  A    between atoms: _154  and  _156
REMARK   69  A    between atoms: _156  and  _157
REMARK   70  A    between atoms: _159  and  _161
REMARK   71  A    between atoms: _161  and  _162
REMARK   72  A    between atoms: _161  and  _164
REMARK   73  A    between atoms: _164  and  _165
REMARK   74  A    between atoms: _168  and  _170
REMARK   75  A    between atoms: _170  and  _171
REMARK   76  A    between atoms: _170  and  _173
REMARK   77  A    between atoms: _173  and  _174
REMARK   78  A    between atoms: _177  and  _179
REMARK   79  A    between atoms: _179  and  _180
REMARK   80  A    between atoms: _179  and  _182
REMARK   81  A    between atoms: _182  and  _183
REMARK   82  A    between atoms: _185  and  _187
REMARK   83  A    between atoms: _187  and  _188
REMARK   84  A    between atoms: _187  and  _190
REMARK   85  A    between atoms: _190  and  _191
REMARK   86  A    between atoms: _201  and  _203
REMARK   87  A    between atoms: _203  and  _204
REMARK   88  A    between atoms: _206  and  _208
REMARK   89  A    between atoms: _208  and  _209
REMARK   90  A    between atoms: _208  and  _211
REMARK   91  A    between atoms: _211  and  _212
REMARK   92  A    between atoms: _215  and  _217
REMARK   93  A    between atoms: _217  and  _218
REMARK   94  A    between atoms: _220  and  _222
REMARK   95  A    between atoms: _222  and  _223
REMARK   96  A    between atoms: _222  and  _225
REMARK   97  A    between atoms: _225  and  _226
REMARK   98  A    between atoms: _227  and  _229
REMARK   99  A    between atoms: _229  and  _230
REMARK  100  A    between atoms: _232  and  _234
REMARK  101  A    between atoms: _234  and  _235
REMARK  102  A    between atoms: _234  and  _237
REMARK  103  A    between atoms: _237  and  _238
REMARK  104  A    between atoms: _238  and  _239
REMARK  105  A    between atoms: _244  and  _246
REMARK  106  A    between atoms: _246  and  _247
REMARK  107  A    between atoms: _246  and  _249
REMARK  108  A    between atoms: _253  and  _254
REMARK  109  A    between atoms: _259  and  _261
REMARK  110  A    between atoms: _261  and  _262
REMARK  111  A    between atoms: _264  and  _266
REMARK  112  A    between atoms: _266  and  _267
REMARK  113  A    between atoms: _266  and  _269
REMARK  114  A    between atoms: _272  and  _274
REMARK  115  A    between atoms: _274  and  _275
REMARK  116  A    between atoms: _274  and  _277
REMARK  117  A    between atoms: _277  and  _278
REMARK  118  A    between atoms: _283  and  _284
REMARK                            x       y       z     vdW  Elec       q    Type
REMARK                         _______ _______ _______ _____ _____    ______ ____
ROOT
ATOM      1  O   HOH     1      -5.297  36.129  26.656  0.00  0.00    +0.000 OA
ENDROOT
TORSDOF 0
REMARK  Name = ../refined-set-2016/1rtf/1rtf_pocket.pdb
REMARK  118 active torsions:
REMARK  status: ('A' for Active; 'I' for Inactive)
REMARK    1  A    between atoms: _1  and  _3
REMARK    2  A    between atoms: _3  and  _4
REMARK    3  A    between atoms: _3  and  _6
REMARK    4  A    between atoms: _6  and  _7
REMARK    5  A    between atoms: _7  and  _8
REMARK    6  A    between atoms: _8  and  _9
REMARK    7  A    between atoms: _9  and  _10
REMARK    8  A    between atoms: _14  and  _16
REMARK    9  A    between atoms: _16  and  _17
REMARK   10  A    between atoms: _16  and  _19
REMARK   11  A    between atoms: _19  and  _20
REMARK   12  A    between atoms: _25  and  _27
REMARK   13  A    between atoms: _27  and  _28
REMARK   14  A    between atoms: _27  and  _30
REMARK   15  A    between atoms: _30  and  _31
REMARK   16  A    between atoms: _36  and  _37
REMARK   17  A    between atoms: _39  and  _41
REMARK   18  A    between atoms: _41  and  _42
REMARK   19  A    between atoms: _41  and  _44
REMARK   20  A    between atoms: _44  and  _45
REMARK   21  A    between atoms: _48  and  _50
REMARK   22  A    between atoms: _50  and  _51
REMARK   23  A    between atoms: _50  and  _53
REMARK   24  A    between atoms: _53  and  _54
REMARK   25  A    between atoms: _57  and  _59
REMARK   26  A    between atoms: _59  and  _60
REMARK   27  A    between atoms: _59  and  _62
REMARK   28  A    between atoms: _62  and  _63
REMARK   29  A    between atoms: _63  and  _64
REMARK   30  A    between atoms: _64  and  _65
REMARK   31  A    between atoms: _65  and  _66
REMARK   32  A    between atoms: _70  and  _72
REMARK   33  A    between atoms: _72  and  _73
REMARK   34  A    between atoms: _76  and  _78
REMARK   35  A    between atoms: _78  and  _79
REMARK   36  A    between atoms: _82  and  _84
REMARK   37  A    between atoms: _84  and  _85
REMARK   38  A    between atoms: _84  and  _87
REMARK   39  A    between atoms: _87  and  _88
REMARK   40  A    between atoms: _93  and  _95
REMARK   41  A    between atoms: _95  and  _96
REMARK   42  A    between atoms: _95  and  _98
REMARK   43  A    between atoms: _98  and  _99
REMARK   44  A    between atoms: _102  and  _104
REMARK   45  A    between atoms: _104  and  _105
REMARK   46  A    between atoms: _108  and  _110
REMARK   47  A    between atoms: _110  and  _111
REMARK   48  A    between atoms: _110  and  _113
REMARK   49  A    between atoms: _113  and  _114
REMARK   50  A    between atoms: _114  and  _226
REMARK   51  A    between atoms: _115  and  _117
REMARK   52  A    between atoms: _117  and  _118
REMARK   53  A    between atoms: _117  and  _120
REMARK   54  A    between atoms: _120  and  _121
REMARK   55  A    between atoms: _121  and  _122
REMARK   56  A    between atoms: _127  and  _129
REMARK   57  A    between atoms: _129  and  _130
REMARK   58  A    between atoms: _132  and  _134
REMARK   59  A    between atoms: _134  and  _135
REMARK   60  A    between atoms: _134  and  _137
REMARK   61  A    between atoms: _137  and  _138
REMARK   62  A    between atoms: _141  and  _143
REMARK   63  A    between atoms: _143  and  _144
REMARK   64  A    between atoms: _143  and  _146
REMARK   65  A    between atoms: _146  and  _147
REMARK   66  A    between atoms: _149  and  _151
REMARK   67  A    between atoms: _151  and  _152
REMARK   68  A    between atoms: _154  and  _156
REMARK   69  A    between atoms: _156  and  _157
REMARK   70  A    between atoms: _159  and  _161
REMARK   71  A    between atoms: _161  and  _162
REMARK   72  A    between atoms: _161  and  _164
REMARK   73  A    between atoms: _164  and  _165
REMARK   74  A    between atoms: _168  and  _170
REMARK   75  A    between atoms: _170  and  _171
REMARK   76  A    between atoms: _170  and  _173
REMARK   77  A    between atoms: _173  and  _174
REMARK   78  A    between atoms: _177  and  _179
REMARK   79  A    between atoms: _179  and  _180
REMARK   80  A    between atoms: _179  and  _182
REMARK   81  A    between atoms: _182  and  _183
REMARK   82  A    between atoms: _185  and  _187
REMARK   83  A    between atoms: _187  and  _188
REMARK   84  A    between atoms: _187  and  _190
REMARK   85  A    between atoms: _190  and  _191
REMARK   86  A    between atoms: _201  and  _203
REMARK   87  A    between atoms: _203  and  _204
REMARK   88  A    between atoms: _206  and  _208
REMARK   89  A    between atoms: _208  and  _209
REMARK   90  A    between atoms: _208  and  _211
REMARK   91  A    between atoms: _211  and  _212
REMARK   92  A    between atoms: _215  and  _217
REMARK   93  A    between atoms: _217  and  _218
REMARK   94  A    between atoms: _220  and  _222
REMARK   95  A    between atoms: _222  and  _223
REMARK   96  A    between atoms: _222  and  _225
REMARK   97  A    between atoms: _225  and  _226
REMARK   98  A    between atoms: _227  and  _229
REMARK   99  A    between atoms: _229  and  _230
REMARK  100  A    between atoms: _232  and  _234
REMARK  101  A    between atoms: _234  and  _235
REMARK  102  A    between atoms: _234  and  _237
REMARK  103  A    between atoms: _237  and  _238
REMARK  104  A    between atoms: _238  and  _239
REMARK  105  A    between atoms: _244  and  _246
REMARK  106  A    between atoms: _246  and  _247
REMARK  107  A    between atoms: _246  and  _249
REMARK  108  A    between atoms: _253  and  _254
REMARK  109  A    between atoms: _259  and  _261
REMARK  110  A    between atoms: _261  and  _262
REMARK  111  A    between atoms: _264  and  _266
REMARK  112  A    between atoms: _266  and  _267
REMARK  113  A    between atoms: _266  and  _269
REMARK  114  A    between atoms: _272  and  _274
REMARK  115  A    between atoms: _274  and  _275
REMARK  116  A    between atoms: _274  and  _277
REMARK  117  A    between atoms: _277  and  _278
REMARK  118  A    between atoms: _283  and  _284
REMARK                            x       y       z     vdW  Elec       q    Type
REMARK                         _______ _______ _______ _____ _____    ______ ____
ROOT
ATOM      1  O   HOH     1      -2.623  34.367  29.409  0.00  0.00    +0.000 OA
ENDROOT
TORSDOF 0
REMARK  Name = ../refined-set-2016/1rtf/1rtf_pocket.pdb
REMARK  118 active torsions:
REMARK  status: ('A' for Active; 'I' for Inactive)
REMARK    1  A    between atoms: _1  and  _3
REMARK    2  A    between atoms: _3  and  _4
REMARK    3  A    between atoms: _3  and  _6
REMARK    4  A    between atoms: _6  and  _7
REMARK    5  A    between atoms: _7  and  _8
REMARK    6  A    between atoms: _8  and  _9
REMARK    7  A    between atoms: _9  and  _10
REMARK    8  A    between atoms: _14  and  _16
REMARK    9  A    between atoms: _16  and  _17
REMARK   10  A    between atoms: _16  and  _19
REMARK   11  A    between atoms: _19  and  _20
REMARK   12  A    between atoms: _25  and  _27
REMARK   13  A    between atoms: _27  and  _28
REMARK   14  A    between atoms: _27  and  _30
REMARK   15  A    between atoms: _30  and  _31
REMARK   16  A    between atoms: _36  and  _37
REMARK   17  A    between atoms: _39  and  _41
REMARK   18  A    between atoms: _41  and  _42
REMARK   19  A    between atoms: _41  and  _44
REMARK   20  A    between atoms: _44  and  _45
REMARK   21  A    between atoms: _48  and  _50
REMARK   22  A    between atoms: _50  and  _51
REMARK   23  A    between atoms: _50  and  _53
REMARK   24  A    between atoms: _53  and  _54
REMARK   25  A    between atoms: _57  and  _59
REMARK   26  A    between atoms: _59  and  _60
REMARK   27  A    between atoms: _59  and  _62
REMARK   28  A    between atoms: _62  and  _63
REMARK   29  A    between atoms: _63  and  _64
REMARK   30  A    between atoms: _64  and  _65
REMARK   31  A    between atoms: _65  and  _66
REMARK   32  A    between atoms: _70  and  _72
REMARK   33  A    between atoms: _72  and  _73
REMARK   34  A    between atoms: _76  and  _78
REMARK   35  A    between atoms: _78  and  _79
REMARK   36  A    between atoms: _82  and  _84
REMARK   37  A    between atoms: _84  and  _85
REMARK   38  A    between atoms: _84  and  _87
REMARK   39  A    between atoms: _87  and  _88
REMARK   40  A    between atoms: _93  and  _95
REMARK   41  A    between atoms: _95  and  _96
REMARK   42  A    between atoms: _95  and  _98
REMARK   43  A    between atoms: _98  and  _99
REMARK   44  A    between atoms: _102  and  _104
REMARK   45  A    between atoms: _104  and  _105
REMARK   46  A    between atoms: _108  and  _110
REMARK   47  A    between atoms: _110  and  _111
REMARK   48  A    between atoms: _110  and  _113
REMARK   49  A    between atoms: _113  and  _114
REMARK   50  A    between atoms: _114  and  _226
REMARK   51  A    between atoms: _115  and  _117
REMARK   52  A    between atoms: _117  and  _118
REMARK   53  A    between atoms: _117  and  _120
REMARK   54  A    between atoms: _120  and  _121
REMARK   55  A    between atoms: _121  and  _122
REMARK   56  A    between atoms: _127  and  _129
REMARK   57  A    between atoms: _129  and  _130
REMARK   58  A    between atoms: _132  and  _134
REMARK   59  A    between atoms: _134  and  _135
REMARK   60  A    between atoms: _134  and  _137
REMARK   61  A    between atoms: _137  and  _138
REMARK   62  A    between atoms: _141  and  _143
REMARK   63  A    between atoms: _143  and  _144
REMARK   64  A    between atoms: _143  and  _146
REMARK   65  A    between atoms: _146  and  _147
REMARK   66  A    between atoms: _149  and  _151
REMARK   67  A    between atoms: _151  and  _152
REMARK   68  A    between atoms: _154  and  _156
REMARK   69  A    between atoms: _156  and  _157
REMARK   70  A    between atoms: _159  and  _161
REMARK   71  A    between atoms: _161  and  _162
REMARK   72  A    between atoms: _161  and  _164
REMARK   73  A    between atoms: _164  and  _165
REMARK   74  A    between atoms: _168  and  _170
REMARK   75  A    between atoms: _170  and  _171
REMARK   76  A    between atoms: _170  and  _173
REMARK   77  A    between atoms: _173  and  _174
REMARK   78  A    between atoms: _177  and  _179
REMARK   79  A    between atoms: _179  and  _180
REMARK   80  A    between atoms: _179  and  _182
REMARK   81  A    between atoms: _182  and  _183
REMARK   82  A    between atoms: _185  and  _187
REMARK   83  A    between atoms: _187  and  _188
REMARK   84  A    between atoms: _187  and  _190
REMARK   85  A    between atoms: _190  and  _191
REMARK   86  A    between atoms: _201  and  _203
REMARK   87  A    between atoms: _203  and  _204
REMARK   88  A    between atoms: _206  and  _208
REMARK   89  A    between atoms: _208  and  _209
REMARK   90  A    between atoms: _208  and  _211
REMARK   91  A    between atoms: _211  and  _212
REMARK   92  A    between atoms: _215  and  _217
REMARK   93  A    between atoms: _217  and  _218
REMARK   94  A    between atoms: _220  and  _222
REMARK   95  A    between atoms: _222  and  _223
REMARK   96  A    between atoms: _222  and  _225
REMARK   97  A    between atoms: _225  and  _226
REMARK   98  A    between atoms: _227  and  _229
REMARK   99  A    between atoms: _229  and  _230
REMARK  100  A    between atoms: _232  and  _234
REMARK  101  A    between atoms: _234  and  _235
REMARK  102  A    between atoms: _234  and  _237
REMARK  103  A    between atoms: _237  and  _238
REMARK  104  A    between atoms: _238  and  _239
REMARK  105  A    between atoms: _244  and  _246
REMARK  106  A    between atoms: _246  and  _247
REMARK  107  A    between atoms: _246  and  _249
REMARK  108  A    between atoms: _253  and  _254
REMARK  109  A    between atoms: _259  and  _261
REMARK  110  A    between atoms: _261  and  _262
REMARK  111  A    between atoms: _264  and  _266
REMARK  112  A    between atoms: _266  and  _267
REMARK  113  A    between atoms: _266  and  _269
REMARK  114  A    between atoms: _272  and  _274
REMARK  115  A    between atoms: _274  and  _275
REMARK  116  A    between atoms: _274  and  _277
REMARK  117  A    between atoms: _277  and  _278
REMARK  118  A    between atoms: _283  and  _284
REMARK                            x       y       z     vdW  Elec       q    Type
REMARK                         _______ _______ _______ _____ _____    ______ ____
ROOT
ATOM      1  O   HOH     1      -7.903  36.443  32.687  0.00  0.00    +0.000 OA
ENDROOT
TORSDOF 0
REMARK  Name = ../refined-set-2016/1rtf/1rtf_pocket.pdb
REMARK  118 active torsions:
REMARK  status: ('A' for Active; 'I' for Inactive)
REMARK    1  A    between atoms: _1  and  _3
REMARK    2  A    between atoms: _3  and  _4
REMARK    3  A    between atoms: _3  and  _6
REMARK    4  A    between atoms: _6  and  _7
REMARK    5  A    between atoms: _7  and  _8
REMARK    6  A    between atoms: _8  and  _9
REMARK    7  A    between atoms: _9  and  _10
REMARK    8  A    between atoms: _14  and  _16
REMARK    9  A    between atoms: _16  and  _17
REMARK   10  A    between atoms: _16  and  _19
REMARK   11  A    between atoms: _19  and  _20
REMARK   12  A    between atoms: _25  and  _27
REMARK   13  A    between atoms: _27  and  _28
REMARK   14  A    between atoms: _27  and  _30
REMARK   15  A    between atoms: _30  and  _31
REMARK   16  A    between atoms: _36  and  _37
REMARK   17  A    between atoms: _39  and  _41
REMARK   18  A    between atoms: _41  and  _42
REMARK   19  A    between atoms: _41  and  _44
REMARK   20  A    between atoms: _44  and  _45
REMARK   21  A    between atoms: _48  and  _50
REMARK   22  A    between atoms: _50  and  _51
REMARK   23  A    between atoms: _50  and  _53
REMARK   24  A    between atoms: _53  and  _54
REMARK   25  A    between atoms: _57  and  _59
REMARK   26  A    between atoms: _59  and  _60
REMARK   27  A    between atoms: _59  and  _62
REMARK   28  A    between atoms: _62  and  _63
REMARK   29  A    between atoms: _63  and  _64
REMARK   30  A    between atoms: _64  and  _65
REMARK   31  A    between atoms: _65  and  _66
REMARK   32  A    between atoms: _70  and  _72
REMARK   33  A    between atoms: _72  and  _73
REMARK   34  A    between atoms: _76  and  _78
REMARK   35  A    between atoms: _78  and  _79
REMARK   36  A    between atoms: _82  and  _84
REMARK   37  A    between atoms: _84  and  _85
REMARK   38  A    between atoms: _84  and  _87
REMARK   39  A    between atoms: _87  and  _88
REMARK   40  A    between atoms: _93  and  _95
REMARK   41  A    between atoms: _95  and  _96
REMARK   42  A    between atoms: _95  and  _98
REMARK   43  A    between atoms: _98  and  _99
REMARK   44  A    between atoms: _102  and  _104
REMARK   45  A    between atoms: _104  and  _105
REMARK   46  A    between atoms: _108  and  _110
REMARK   47  A    between atoms: _110  and  _111
REMARK   48  A    between atoms: _110  and  _113
REMARK   49  A    between atoms: _113  and  _114
REMARK   50  A    between atoms: _114  and  _226
REMARK   51  A    between atoms: _115  and  _117
REMARK   52  A    between atoms: _117  and  _118
REMARK   53  A    between atoms: _117  and  _120
REMARK   54  A    between atoms: _120  and  _121
REMARK   55  A    between atoms: _121  and  _122
REMARK   56  A    between atoms: _127  and  _129
REMARK   57  A    between atoms: _129  and  _130
REMARK   58  A    between atoms: _132  and  _134
REMARK   59  A    between atoms: _134  and  _135
REMARK   60  A    between atoms: _134  and  _137
REMARK   61  A    between atoms: _137  and  _138
REMARK   62  A    between atoms: _141  and  _143
REMARK   63  A    between atoms: _143  and  _144
REMARK   64  A    between atoms: _143  and  _146
REMARK   65  A    between atoms: _146  and  _147
REMARK   66  A    between atoms: _149  and  _151
REMARK   67  A    between atoms: _151  and  _152
REMARK   68  A    between atoms: _154  and  _156
REMARK   69  A    between atoms: _156  and  _157
REMARK   70  A    between atoms: _159  and  _161
REMARK   71  A    between atoms: _161  and  _162
REMARK   72  A    between atoms: _161  and  _164
REMARK   73  A    between atoms: _164  and  _165
REMARK   74  A    between atoms: _168  and  _170
REMARK   75  A    between atoms: _170  and  _171
REMARK   76  A    between atoms: _170  and  _173
REMARK   77  A    between atoms: _173  and  _174
REMARK   78  A    between atoms: _177  and  _179
REMARK   79  A    between atoms: _179  and  _180
REMARK   80  A    between atoms: _179  and  _182
REMARK   81  A    between atoms: _182  and  _183
REMARK   82  A    between atoms: _185  and  _187
REMARK   83  A    between atoms: _187  and  _188
REMARK   84  A    between atoms: _187  and  _190
REMARK   85  A    between atoms: _190  and  _191
REMARK   86  A    between atoms: _201  and  _203
REMARK   87  A    between atoms: _203  and  _204
REMARK   88  A    between atoms: _206  and  _208
REMARK   89  A    between atoms: _208  and  _209
REMARK   90  A    between atoms: _208  and  _211
REMARK   91  A    between atoms: _211  and  _212
REMARK   92  A    between atoms: _215  and  _217
REMARK   93  A    between atoms: _217  and  _218
REMARK   94  A    between atoms: _220  and  _222
REMARK   95  A    between atoms: _222  and  _223
REMARK   96  A    between atoms: _222  and  _225
REMARK   97  A    between atoms: _225  and  _226
REMARK   98  A    between atoms: _227  and  _229
REMARK   99  A    between atoms: _229  and  _230
REMARK  100  A    between atoms: _232  and  _234
REMARK  101  A    between atoms: _234  and  _235
REMARK  102  A    between atoms: _234  and  _237
REMARK  103  A    between atoms: _237  and  _238
REMARK  104  A    between atoms: _238  and  _239
REMARK  105  A    between atoms: _244  and  _246
REMARK  106  A    between atoms: _246  and  _247
REMARK  107  A    between atoms: _246  and  _249
REMARK  108  A    between atoms: _253  and  _254
REMARK  109  A    between atoms: _259  and  _261
REMARK  110  A    between atoms: _261  and  _262
REMARK  111  A    between atoms: _264  and  _266
REMARK  112  A    between atoms: _266  and  _267
REMARK  113  A    between atoms: _266  and  _269
REMARK  114  A    between atoms: _272  and  _274
REMARK  115  A    between atoms: _274  and  _275
REMARK  116  A    between atoms: _274  and  _277
REMARK  117  A    between atoms: _277  and  _278
REMARK  118  A    between atoms: _283  and  _284
REMARK                            x       y       z     vdW  Elec       q    Type
REMARK                         _______ _______ _______ _____ _____    ______ ____
ROOT
ATOM      1  O   HOH     1      -2.873  32.332  33.908  0.00  0.00    +0.000 OA
ENDROOT
TORSDOF 0
REMARK  Name = ../refined-set-2016/1rtf/1rtf_pocket.pdb
REMARK  118 active torsions:
REMARK  status: ('A' for Active; 'I' for Inactive)
REMARK    1  A    between atoms: _1  and  _3
REMARK    2  A    between atoms: _3  and  _4
REMARK    3  A    between atoms: _3  and  _6
REMARK    4  A    between atoms: _6  and  _7
REMARK    5  A    between atoms: _7  and  _8
REMARK    6  A    between atoms: _8  and  _9
REMARK    7  A    between atoms: _9  and  _10
REMARK    8  A    between atoms: _14  and  _16
REMARK    9  A    between atoms: _16  and  _17
REMARK   10  A    between atoms: _16  and  _19
REMARK   11  A    between atoms: _19  and  _20
REMARK   12  A    between atoms: _25  and  _27
REMARK   13  A    between atoms: _27  and  _28
REMARK   14  A    between atoms: _27  and  _30
REMARK   15  A    between atoms: _30  and  _31
REMARK   16  A    between atoms: _36  and  _37
REMARK   17  A    between atoms: _39  and  _41
REMARK   18  A    between atoms: _41  and  _42
REMARK   19  A    between atoms: _41  and  _44
REMARK   20  A    between atoms: _44  and  _45
REMARK   21  A    between atoms: _48  and  _50
REMARK   22  A    between atoms: _50  and  _51
REMARK   23  A    between atoms: _50  and  _53
REMARK   24  A    between atoms: _53  and  _54
REMARK   25  A    between atoms: _57  and  _59
REMARK   26  A    between atoms: _59  and  _60
REMARK   27  A    between atoms: _59  and  _62
REMARK   28  A    between atoms: _62  and  _63
REMARK   29  A    between atoms: _63  and  _64
REMARK   30  A    between atoms: _64  and  _65
REMARK   31  A    between atoms: _65  and  _66
REMARK   32  A    between atoms: _70  and  _72
REMARK   33  A    between atoms: _72  and  _73
REMARK   34  A    between atoms: _76  and  _78
REMARK   35  A    between atoms: _78  and  _79
REMARK   36  A    between atoms: _82  and  _84
REMARK   37  A    between atoms: _84  and  _85
REMARK   38  A    between atoms: _84  and  _87
REMARK   39  A    between atoms: _87  and  _88
REMARK   40  A    between atoms: _93  and  _95
REMARK   41  A    between atoms: _95  and  _96
REMARK   42  A    between atoms: _95  and  _98
REMARK   43  A    between atoms: _98  and  _99
REMARK   44  A    between atoms: _102  and  _104
REMARK   45  A    between atoms: _104  and  _105
REMARK   46  A    between atoms: _108  and  _110
REMARK   47  A    between atoms: _110  and  _111
REMARK   48  A    between atoms: _110  and  _113
REMARK   49  A    between atoms: _113  and  _114
REMARK   50  A    between atoms: _114  and  _226
REMARK   51  A    between atoms: _115  and  _117
REMARK   52  A    between atoms: _117  and  _118
REMARK   53  A    between atoms: _117  and  _120
REMARK   54  A    between atoms: _120  and  _121
REMARK   55  A    between atoms: _121  and  _122
REMARK   56  A    between atoms: _127  and  _129
REMARK   57  A    between atoms: _129  and  _130
REMARK   58  A    between atoms: _132  and  _134
REMARK   59  A    between atoms: _134  and  _135
REMARK   60  A    between atoms: _134  and  _137
REMARK   61  A    between atoms: _137  and  _138
REMARK   62  A    between atoms: _141  and  _143
REMARK   63  A    between atoms: _143  and  _144
REMARK   64  A    between atoms: _143  and  _146
REMARK   65  A    between atoms: _146  and  _147
REMARK   66  A    between atoms: _149  and  _151
REMARK   67  A    between atoms: _151  and  _152
REMARK   68  A    between atoms: _154  and  _156
REMARK   69  A    between atoms: _156  and  _157
REMARK   70  A    between atoms: _159  and  _161
REMARK   71  A    between atoms: _161  and  _162
REMARK   72  A    between atoms: _161  and  _164
REMARK   73  A    between atoms: _164  and  _165
REMARK   74  A    between atoms: _168  and  _170
REMARK   75  A    between atoms: _170  and  _171
REMARK   76  A    between atoms: _170  and  _173
REMARK   77  A    between atoms: _173  and  _174
REMARK   78  A    between atoms: _177  and  _179
REMARK   79  A    between atoms: _179  and  _180
REMARK   80  A    between atoms: _179  and  _182
REMARK   81  A    between atoms: _182  and  _183
REMARK   82  A    between atoms: _185  and  _187
REMARK   83  A    between atoms: _187  and  _188
REMARK   84  A    between atoms: _187  and  _190
REMARK   85  A    between atoms: _190  and  _191
REMARK   86  A    between atoms: _201  and  _203
REMARK   87  A    between atoms: _203  and  _204
REMARK   88  A    between atoms: _206  and  _208
REMARK   89  A    between atoms: _208  and  _209
REMARK   90  A    between atoms: _208  and  _211
REMARK   91  A    between atoms: _211  and  _212
REMARK   92  A    between atoms: _215  and  _217
REMARK   93  A    between atoms: _217  and  _218
REMARK   94  A    between atoms: _220  and  _222
REMARK   95  A    between atoms: _222  and  _223
REMARK   96  A    between atoms: _222  and  _225
REMARK   97  A    between atoms: _225  and  _226
REMARK   98  A    between atoms: _227  and  _229
REMARK   99  A    between atoms: _229  and  _230
REMARK  100  A    between atoms: _232  and  _234
REMARK  101  A    between atoms: _234  and  _235
REMARK  102  A    between atoms: _234  and  _237
REMARK  103  A    between atoms: _237  and  _238
REMARK  104  A    between atoms: _238  and  _239
REMARK  105  A    between atoms: _244  and  _246
REMARK  106  A    between atoms: _246  and  _247
REMARK  107  A    between atoms: _246  and  _249
REMARK  108  A    between atoms: _253  and  _254
REMARK  109  A    between atoms: _259  and  _261
REMARK  110  A    between atoms: _261  and  _262
REMARK  111  A    between atoms: _264  and  _266
REMARK  112  A    between atoms: _266  and  _267
REMARK  113  A    between atoms: _266  and  _269
REMARK  114  A    between atoms: _272  and  _274
REMARK  115  A    between atoms: _274  and  _275
REMARK  116  A    between atoms: _274  and  _277
REMARK  117  A    between atoms: _277  and  _278
REMARK  118  A    between atoms: _283  and  _284
REMARK                            x       y       z     vdW  Elec       q    Type
REMARK                         _______ _______ _______ _____ _____    ______ ____
ROOT
ATOM      1  O   HOH     1      -7.454  37.712  26.860  0.00  0.00    +0.000 OA
ENDROOT
TORSDOF 0
REMARK  Name = ../refined-set-2016/1rtf/1rtf_pocket.pdb
REMARK  118 active torsions:
REMARK  status: ('A' for Active; 'I' for Inactive)
REMARK    1  A    between atoms: _1  and  _3
REMARK    2  A    between atoms: _3  and  _4
REMARK    3  A    between atoms: _3  and  _6
REMARK    4  A    between atoms: _6  and  _7
REMARK    5  A    between atoms: _7  and  _8
REMARK    6  A    between atoms: _8  and  _9
REMARK    7  A    between atoms: _9  and  _10
REMARK    8  A    between atoms: _14  and  _16
REMARK    9  A    between atoms: _16  and  _17
REMARK   10  A    between atoms: _16  and  _19
REMARK   11  A    between atoms: _19  and  _20
REMARK   12  A    between atoms: _25  and  _27
REMARK   13  A    between atoms: _27  and  _28
REMARK   14  A    between atoms: _27  and  _30
REMARK   15  A    between atoms: _30  and  _31
REMARK   16  A    between atoms: _36  and  _37
REMARK   17  A    between atoms: _39  and  _41
REMARK   18  A    between atoms: _41  and  _42
REMARK   19  A    between atoms: _41  and  _44
REMARK   20  A    between atoms: _44  and  _45
REMARK   21  A    between atoms: _48  and  _50
REMARK   22  A    between atoms: _50  and  _51
REMARK   23  A    between atoms: _50  and  _53
REMARK   24  A    between atoms: _53  and  _54
REMARK   25  A    between atoms: _57  and  _59
REMARK   26  A    between atoms: _59  and  _60
REMARK   27  A    between atoms: _59  and  _62
REMARK   28  A    between atoms: _62  and  _63
REMARK   29  A    between atoms: _63  and  _64
REMARK   30  A    between atoms: _64  and  _65
REMARK   31  A    between atoms: _65  and  _66
REMARK   32  A    between atoms: _70  and  _72
REMARK   33  A    between atoms: _72  and  _73
REMARK   34  A    between atoms: _76  and  _78
REMARK   35  A    between atoms: _78  and  _79
REMARK   36  A    between atoms: _82  and  _84
REMARK   37  A    between atoms: _84  and  _85
REMARK   38  A    between atoms: _84  and  _87
REMARK   39  A    between atoms: _87  and  _88
REMARK   40  A    between atoms: _93  and  _95
REMARK   41  A    between atoms: _95  and  _96
REMARK   42  A    between atoms: _95  and  _98
REMARK   43  A    between atoms: _98  and  _99
REMARK   44  A    between atoms: _102  and  _104
REMARK   45  A    between atoms: _104  and  _105
REMARK   46  A    between atoms: _108  and  _110
REMARK   47  A    between atoms: _110  and  _111
REMARK   48  A    between atoms: _110  and  _113
REMARK   49  A    between atoms: _113  and  _114
REMARK   50  A    between atoms: _114  and  _226
REMARK   51  A    between atoms: _115  and  _117
REMARK   52  A    between atoms: _117  and  _118
REMARK   53  A    between atoms: _117  and  _120
REMARK   54  A    between atoms: _120  and  _121
REMARK   55  A    between atoms: _121  and  _122
REMARK   56  A    between atoms: _127  and  _129
REMARK   57  A    between atoms: _129  and  _130
REMARK   58  A    between atoms: _132  and  _134
REMARK   59  A    between atoms: _134  and  _135
REMARK   60  A    between atoms: _134  and  _137
REMARK   61  A    between atoms: _137  and  _138
REMARK   62  A    between atoms: _141  and  _143
REMARK   63  A    between atoms: _143  and  _144
REMARK   64  A    between atoms: _143  and  _146
REMARK   65  A    between atoms: _146  and  _147
REMARK   66  A    between atoms: _149  and  _151
REMARK   67  A    between atoms: _151  and  _152
REMARK   68  A    between atoms: _154  and  _156
REMARK   69  A    between atoms: _156  and  _157
REMARK   70  A    between atoms: _159  and  _161
REMARK   71  A    between atoms: _161  and  _162
REMARK   72  A    between atoms: _161  and  _164
REMARK   73  A    between atoms: _164  and  _165
REMARK   74  A    between atoms: _168  and  _170
REMARK   75  A    between atoms: _170  and  _171
REMARK   76  A    between atoms: _170  and  _173
REMARK   77  A    between atoms: _173  and  _174
REMARK   78  A    between atoms: _177  and  _179
REMARK   79  A    between atoms: _179  and  _180
REMARK   80  A    between atoms: _179  and  _182
REMARK   81  A    between atoms: _182  and  _183
REMARK   82  A    between atoms: _185  and  _187
REMARK   83  A    between atoms: _187  and  _188
REMARK   84  A    between atoms: _187  and  _190
REMARK   85  A    between atoms: _190  and  _191
REMARK   86  A    between atoms: _201  and  _203
REMARK   87  A    between atoms: _203  and  _204
REMARK   88  A    between atoms: _206  and  _208
REMARK   89  A    between atoms: _208  and  _209
REMARK   90  A    between atoms: _208  and  _211
REMARK   91  A    between atoms: _211  and  _212
REMARK   92  A    between atoms: _215  and  _217
REMARK   93  A    between atoms: _217  and  _218
REMARK   94  A    between atoms: _220  and  _222
REMARK   95  A    between atoms: _222  and  _223
REMARK   96  A    between atoms: _222  and  _225
REMARK   97  A    between atoms: _225  and  _226
REMARK   98  A    between atoms: _227  and  _229
REMARK   99  A    between atoms: _229  and  _230
REMARK  100  A    between atoms: _232  and  _234
REMARK  101  A    between atoms: _234  and  _235
REMARK  102  A    between atoms: _234  and  _237
REMARK  103  A    between atoms: _237  and  _238
REMARK  104  A    between atoms: _238  and  _239
REMARK  105  A    between atoms: _244  and  _246
REMARK  106  A    between atoms: _246  and  _247
REMARK  107  A    between atoms: _246  and  _249
REMARK  108  A    between atoms: _253  and  _254
REMARK  109  A    between atoms: _259  and  _261
REMARK  110  A    between atoms: _261  and  _262
REMARK  111  A    between atoms: _264  and  _266
REMARK  112  A    between atoms: _266  and  _267
REMARK  113  A    between atoms: _266  and  _269
REMARK  114  A    between atoms: _272  and  _274
REMARK  115  A    between atoms: _274  and  _275
REMARK  116  A    between atoms: _274  and  _277
REMARK  117  A    between atoms: _277  and  _278
REMARK  118  A    between atoms: _283  and  _284
REMARK                            x       y       z     vdW  Elec       q    Type
REMARK                         _______ _______ _______ _____ _____    ______ ____
ROOT
ATOM      1  O   HOH     1      -9.692  36.184  30.278  0.00  0.00    +0.000 OA
ENDROOT
TORSDOF 0
