REMARK  Name = ../refined-set-2016/2vuk/2vuk_pocket.pdb
REMARK  97 active torsions:
REMARK  status: ('A' for Active; 'I' for Inactive)
REMARK    1  A    between atoms: _1  and  _3
REMARK    2  A    between atoms: _3  and  _4
REMARK    3  A    between atoms: _3  and  _6
REMARK    4  A    between atoms: _6  and  _7
REMARK    5  A    between atoms: _12  and  _13
REMARK    6  A    between atoms: _15  and  _17
REMARK    7  A    between atoms: _17  and  _18
REMARK    8  A    between atoms: _20  and  _22
REMARK    9  A    between atoms: _22  and  _23
REMARK   10  A    between atoms: _22  and  _25
REMARK   11  A    between atoms: _25  and  _26
REMARK   12  A    between atoms: _32  and  _34
REMARK   13  A    between atoms: _34  and  _35
REMARK   14  A    between atoms: _34  and  _37
REMARK   15  A    between atoms: _37  and  _38
REMARK   16  A    between atoms: _38  and  _39
REMARK   17  A    between atoms: _39  and  _40
REMARK   18  A    between atoms: _49  and  _51
REMARK   19  A    between atoms: _51  and  _52
REMARK   20  A    between atoms: _51  and  _54
REMARK   21  A    between atoms: _54  and  _55
REMARK   22  A    between atoms: _55  and  _56
REMARK   23  A    between atoms: _61  and  _63
REMARK   24  A    between atoms: _63  and  _64
REMARK   25  A    between atoms: _63  and  _66
REMARK   26  A    between atoms: _66  and  _67
REMARK   27  A    between atoms: _70  and  _72
REMARK   28  A    between atoms: _72  and  _73
REMARK   29  A    between atoms: _72  and  _75
REMARK   30  A    between atoms: _75  and  _76
REMARK   31  A    between atoms: _86  and  _88
REMARK   32  A    between atoms: _88  and  _89
REMARK   33  A    between atoms: _88  and  _91
REMARK   34  A    between atoms: _94  and  _96
REMARK   35  A    between atoms: _96  and  _97
REMARK   36  A    between atoms: _96  and  _99
REMARK   37  A    between atoms: _99  and  _100
REMARK   38  A    between atoms: _103  and  _105
REMARK   39  A    between atoms: _105  and  _106
REMARK   40  A    between atoms: _105  and  _108
REMARK   41  A    between atoms: _108  and  _109
REMARK   42  A    between atoms: _111  and  _113
REMARK   43  A    between atoms: _113  and  _114
REMARK   44  A    between atoms: _113  and  _116
REMARK   45  A    between atoms: _116  and  _117
REMARK   46  A    between atoms: _121  and  _122
REMARK   47  A    between atoms: _128  and  _129
REMARK   48  A    between atoms: _135  and  _136
REMARK   49  A    between atoms: _141  and  _143
REMARK   50  A    between atoms: _143  and  _144
REMARK   51  A    between atoms: _146  and  _148
REMARK   52  A    between atoms: _148  and  _149
REMARK   53  A    between atoms: _148  and  _151
REMARK   54  A    between atoms: _151  and  _152
REMARK   55  A    between atoms: _155  and  _157
REMARK   56  A    between atoms: _157  and  _158
REMARK   57  A    between atoms: _157  and  _160
REMARK   58  A    between atoms: _160  and  _161
REMARK   59  A    between atoms: _161  and  _162
REMARK   60  A    between atoms: _162  and  _163
REMARK   61  A    between atoms: _172  and  _174
REMARK   62  A    between atoms: _174  and  _175
REMARK   63  A    between atoms: _174  and  _177
REMARK   64  A    between atoms: _181  and  _182
REMARK   65  A    between atoms: _187  and  _189
REMARK   66  A    between atoms: _189  and  _190
REMARK   67  A    between atoms: _189  and  _192
REMARK   68  A    between atoms: _194  and  _196
REMARK   69  A    between atoms: _196  and  _197
REMARK   70  A    between atoms: _196  and  _199
REMARK   71  A    between atoms: _199  and  _200
REMARK   72  A    between atoms: _200  and  _201
REMARK   73  A    between atoms: _205  and  _206
REMARK   74  A    between atoms: _212  and  _213
REMARK   75  A    between atoms: _218  and  _220
REMARK   76  A    between atoms: _220  and  _221
REMARK   77  A    between atoms: _220  and  _223
REMARK   78  A    between atoms: _223  and  _224
REMARK   79  A    between atoms: _226  and  _228
REMARK   80  A    between atoms: _228  and  _229
REMARK   81  A    between atoms: _228  and  _231
REMARK   82  A    between atoms: _231  and  _232
REMARK   83  A    between atoms: _235  and  _237
REMARK   84  A    between atoms: _237  and  _238
REMARK   85  A    between atoms: _237  and  _240
REMARK   86  A    between atoms: _242  and  _244
REMARK   87  A    between atoms: _244  and  _245
REMARK   88  A    between atoms: _244  and  _247
REMARK   89  A    between atoms: _247  and  _248
REMARK   90  A    between atoms: _251  and  _253
REMARK   91  A    between atoms: _253  and  _254
REMARK   92  A    between atoms: _253  and  _256
REMARK   93  A    between atoms: _256  and  _257
REMARK   94  A    between atoms: _260  and  _262
REMARK   95  A    between atoms: _262  and  _263
REMARK   96  A    between atoms: _262  and  _265
REMARK   97  A    between atoms: _265  and  _266
REMARK                            x       y       z     vdW  Elec       q    Type
REMARK                         _______ _______ _______ _____ _____    ______ ____
ROOT
ATOM      1  CA  PHE A   3     133.252 104.066 -40.215  0.00  0.00    +0.153 C 
ENDROOT
BRANCH   1   4
ATOM      2  C   GLY A   2     133.724 106.318 -41.032  0.00  0.00    +0.243 C 
ATOM      3  O   GLY A   2     132.871 106.824 -40.309  0.00  0.00    -0.273 OA
ATOM      4  N   PHE A   3     133.986 105.015 -41.045  0.00  0.00    -0.297 N 
ATOM      5  H   PHE A   3     134.740 104.660 -41.668  0.00  0.00    +0.150 HD
BRANCH   2   6
ATOM      6  CA  GLY A   2     134.550 107.160 -41.986  0.00  0.00    +0.176 C 
BRANCH   6   8
ATOM      7  C   TYR A   1     133.516 106.424 -44.071  0.00  0.00    +0.239 C 
ATOM      8  N   GLY A   2     134.608 106.550 -43.311  0.00  0.00    -0.296 N 
ATOM      9  H   GLY A   2     135.520 106.205 -43.672  0.00  0.00    +0.150 HD
ATOM     10  O   TYR A   1     132.405 106.806 -43.732  0.00  0.00    -0.274 OA
BRANCH   7  11
ATOM     11  CA  TYR A   1     133.686 105.777 -45.445  0.00  0.00    +0.149 C 
BRANCH  11  12
ATOM     12  N   TYR A   1     135.035 105.337 -45.758  0.00  0.00    -0.238 NA
ATOM     13  H   TYR A   1     135.369 104.417 -45.407  0.00  0.00    +0.142 HD
ENDBRANCH  11  12
BRANCH  11  14
ATOM     14  CB  TYR A   1     132.714 104.586 -45.587  0.00  0.00    +0.053 C 
BRANCH  14  15
ATOM     15  CG  TYR A   1     132.740 103.961 -46.972  0.00  0.00    -0.020 A 
ATOM     16  CD2 TYR A   1     133.479 102.804 -47.218  0.00  0.00    -0.001 A 
ATOM     17  CE2 TYR A   1     133.608 102.288 -48.522  0.00  0.00    +0.036 A 
ATOM     18  CZ  TYR A   1     132.985 102.935 -49.568  0.00  0.00    +0.134 A 
ATOM     19  CE1 TYR A   1     132.239 104.079 -49.351  0.00  0.00    +0.036 A 
ATOM     20  CD1 TYR A   1     132.119 104.587 -48.047  0.00  0.00    -0.001 A 
BRANCH  18  21
ATOM     21  OH  TYR A   1     133.121 102.426 -50.842  0.00  0.00    -0.506 OA
ATOM     22  HH  TYR A   1     132.621 102.995 -51.479  0.00  0.00    +0.292 HD
ENDBRANCH  18  21
ENDBRANCH  14  15
ENDBRANCH  11  14
ENDBRANCH   7  11
ENDBRANCH   6   8
ENDBRANCH   2   6
ENDBRANCH   1   4
BRANCH   1  23
ATOM     23  C   PHE A   3     133.639 104.087 -38.735  0.00  0.00    +0.241 C 
ATOM     24  N   ARG A   4     132.622 104.114 -37.868  0.00  0.00    -0.298 N 
ATOM     25  H   ARG A   4     131.649 104.201 -38.224  0.00  0.00    +0.150 HD
ATOM     26  O   PHE A   3     134.825 104.060 -38.389  0.00  0.00    -0.273 OA
BRANCH  24  27
ATOM     27  CA  ARG A   4     132.856 104.023 -36.424  0.00  0.00    +0.137 C 
BRANCH  27  28
ATOM     28  C   ARG A   4     131.563 103.623 -35.715  0.00  0.00    +0.227 C 
ATOM     29  O   ARG A   4     130.467 103.797 -36.238  0.00  0.00    -0.286 OA
ENDBRANCH  27  28
BRANCH  27  30
ATOM     30  CB  ARG A   4     133.380 105.339 -35.816  0.00  0.00    +0.031 C 
BRANCH  30  31
ATOM     31  CG  ARG A   4     132.356 106.469 -35.751  0.00  0.00    +0.045 C 
BRANCH  31  32
ATOM     32  CD  ARG A   4     132.186 107.184 -37.087  0.00  0.00    +0.174 C 
BRANCH  32  33
ATOM     33  NE  ARG A   4     131.397 108.405 -36.888  0.00  0.00    -0.265 N 
ATOM     34  HE  ARG A   4     131.059 108.617 -35.928  0.00  0.00    +0.259 HD
ATOM     35  CZ  ARG A   4     131.090 109.253 -37.857  0.00  0.00    +0.342 C 
ATOM     36  NH2 ARG A   4     130.318 110.305 -37.613  0.00  0.00    -0.292 N 
ATOM     37 HH21 ARG A   4     129.949 110.468 -36.654  0.00  0.00    +0.255 HD
ATOM     38 HH22 ARG A   4     130.082 110.966 -38.380  0.00  0.00    +0.255 HD
ATOM     39  NH1 ARG A   4     131.512 109.023 -39.093  0.00  0.00    -0.292 N 
ATOM     40 HH11 ARG A   4     132.083 108.178 -39.299  0.00  0.00    +0.255 HD
ATOM     41 HH12 ARG A   4     131.272 109.687 -39.856  0.00  0.00    +0.255 HD
ENDBRANCH  32  33
ENDBRANCH  31  32
ENDBRANCH  30  31
ENDBRANCH  27  30
ENDBRANCH  24  27
ENDBRANCH   1  23
BRANCH   1  42
ATOM     42  CB  PHE A   3     133.486 102.641 -40.758  0.00  0.00    +0.055 C 
BRANCH  42  43
ATOM     43  CG  PHE A   3     132.846 101.560 -39.928  0.00  0.00    -0.020 A 
ATOM     44  CD2 PHE A   3     133.627 100.727 -39.132  0.00  0.00    -0.004 A 
ATOM     45  CE2 PHE A   3     133.024  99.707 -38.360  0.00  0.00    -0.000 A 
ATOM     46  CZ  PHE A   3     131.636  99.539 -38.395  0.00  0.00    -0.000 A 
ATOM     47  CE1 PHE A   3     130.853 100.370 -39.187  0.00  0.00    -0.000 A 
ATOM     48  CD1 PHE A   3     131.470 101.382 -39.956  0.00  0.00    -0.004 A 
ENDBRANCH  42  43
ENDBRANCH   1  42
TORSDOF 17
REMARK  Name = ../refined-set-2016/2vuk/2vuk_pocket.pdb
REMARK  97 active torsions:
REMARK  status: ('A' for Active; 'I' for Inactive)
REMARK    1  A    between atoms: _1  and  _3
REMARK    2  A    between atoms: _3  and  _4
REMARK    3  A    between atoms: _3  and  _6
REMARK    4  A    between atoms: _6  and  _7
REMARK    5  A    between atoms: _12  and  _13
REMARK    6  A    between atoms: _15  and  _17
REMARK    7  A    between atoms: _17  and  _18
REMARK    8  A    between atoms: _20  and  _22
REMARK    9  A    between atoms: _22  and  _23
REMARK   10  A    between atoms: _22  and  _25
REMARK   11  A    between atoms: _25  and  _26
REMARK   12  A    between atoms: _32  and  _34
REMARK   13  A    between atoms: _34  and  _35
REMARK   14  A    between atoms: _34  and  _37
REMARK   15  A    between atoms: _37  and  _38
REMARK   16  A    between atoms: _38  and  _39
REMARK   17  A    between atoms: _39  and  _40
REMARK   18  A    between atoms: _49  and  _51
REMARK   19  A    between atoms: _51  and  _52
REMARK   20  A    between atoms: _51  and  _54
REMARK   21  A    between atoms: _54  and  _55
REMARK   22  A    between atoms: _55  and  _56
REMARK   23  A    between atoms: _61  and  _63
REMARK   24  A    between atoms: _63  and  _64
REMARK   25  A    between atoms: _63  and  _66
REMARK   26  A    between atoms: _66  and  _67
REMARK   27  A    between atoms: _70  and  _72
REMARK   28  A    between atoms: _72  and  _73
REMARK   29  A    between atoms: _72  and  _75
REMARK   30  A    between atoms: _75  and  _76
REMARK   31  A    between atoms: _86  and  _88
REMARK   32  A    between atoms: _88  and  _89
REMARK   33  A    between atoms: _88  and  _91
REMARK   34  A    between atoms: _94  and  _96
REMARK   35  A    between atoms: _96  and  _97
REMARK   36  A    between atoms: _96  and  _99
REMARK   37  A    between atoms: _99  and  _100
REMARK   38  A    between atoms: _103  and  _105
REMARK   39  A    between atoms: _105  and  _106
REMARK   40  A    between atoms: _105  and  _108
REMARK   41  A    between atoms: _108  and  _109
REMARK   42  A    between atoms: _111  and  _113
REMARK   43  A    between atoms: _113  and  _114
REMARK   44  A    between atoms: _113  and  _116
REMARK   45  A    between atoms: _116  and  _117
REMARK   46  A    between atoms: _121  and  _122
REMARK   47  A    between atoms: _128  and  _129
REMARK   48  A    between atoms: _135  and  _136
REMARK   49  A    between atoms: _141  and  _143
REMARK   50  A    between atoms: _143  and  _144
REMARK   51  A    between atoms: _146  and  _148
REMARK   52  A    between atoms: _148  and  _149
REMARK   53  A    between atoms: _148  and  _151
REMARK   54  A    between atoms: _151  and  _152
REMARK   55  A    between atoms: _155  and  _157
REMARK   56  A    between atoms: _157  and  _158
REMARK   57  A    between atoms: _157  and  _160
REMARK   58  A    between atoms: _160  and  _161
REMARK   59  A    between atoms: _161  and  _162
REMARK   60  A    between atoms: _162  and  _163
REMARK   61  A    between atoms: _172  and  _174
REMARK   62  A    between atoms: _174  and  _175
REMARK   63  A    between atoms: _174  and  _177
REMARK   64  A    between atoms: _181  and  _182
REMARK   65  A    between atoms: _187  and  _189
REMARK   66  A    between atoms: _189  and  _190
REMARK   67  A    between atoms: _189  and  _192
REMARK   68  A    between atoms: _194  and  _196
REMARK   69  A    between atoms: _196  and  _197
REMARK   70  A    between atoms: _196  and  _199
REMARK   71  A    between atoms: _199  and  _200
REMARK   72  A    between atoms: _200  and  _201
REMARK   73  A    between atoms: _205  and  _206
REMARK   74  A    between atoms: _212  and  _213
REMARK   75  A    between atoms: _218  and  _220
REMARK   76  A    between atoms: _220  and  _221
REMARK   77  A    between atoms: _220  and  _223
REMARK   78  A    between atoms: _223  and  _224
REMARK   79  A    between atoms: _226  and  _228
REMARK   80  A    between atoms: _228  and  _229
REMARK   81  A    between atoms: _228  and  _231
REMARK   82  A    between atoms: _231  and  _232
REMARK   83  A    between atoms: _235  and  _237
REMARK   84  A    between atoms: _237  and  _238
REMARK   85  A    between atoms: _237  and  _240
REMARK   86  A    between atoms: _242  and  _244
REMARK   87  A    between atoms: _244  and  _245
REMARK   88  A    between atoms: _244  and  _247
REMARK   89  A    between atoms: _247  and  _248
REMARK   90  A    between atoms: _251  and  _253
REMARK   91  A    between atoms: _253  and  _254
REMARK   92  A    between atoms: _253  and  _256
REMARK   93  A    between atoms: _256  and  _257
REMARK   94  A    between atoms: _260  and  _262
REMARK   95  A    between atoms: _262  and  _263
REMARK   96  A    between atoms: _262  and  _265
REMARK   97  A    between atoms: _265  and  _266
REMARK                            x       y       z     vdW  Elec       q    Type
REMARK                         _______ _______ _______ _____ _____    ______ ____
ROOT
ATOM      1  CA  THR A   7     127.326 105.776 -48.105  0.00  0.00    +0.176 C 
ENDROOT
BRANCH   1   2
ATOM      2  C   THR A   7     128.146 104.660 -48.748  0.00  0.00    +0.246 C 
ATOM      3  N   PRO A   8     128.296 103.522 -48.047  0.00  0.00    -0.272 N 
ATOM      4  CD  PRO A   8     127.925 103.217 -46.656  0.00  0.00    +0.094 C 
ATOM      5  CG  PRO A   8     128.237 101.736 -46.557  0.00  0.00    +0.024 C 
ATOM      6  CB  PRO A   8     129.407 101.544 -47.458  0.00  0.00    +0.031 C 
ATOM      7  CA  PRO A   8     129.062 102.428 -48.650  0.00  0.00    +0.152 C 
ATOM      8  O   THR A   7     128.678 104.818 -49.848  0.00  0.00    -0.273 OA
BRANCH   7   9
ATOM      9  C   PRO A   8     128.169 101.734 -49.686  0.00  0.00    +0.244 C 
ATOM     10  O   PRO A   8     126.945 101.854 -49.657  0.00  0.00    -0.273 OA
ATOM     11  N   PRO A   9     128.773 100.977 -50.601  0.00  0.00    -0.272 N 
ATOM     12  CD  PRO A   9     130.227 100.788 -50.728  0.00  0.00    +0.094 C 
ATOM     13  CG  PRO A   9     130.383 100.504 -52.196  0.00  0.00    +0.024 C 
ATOM     14  CB  PRO A   9     129.186  99.696 -52.524  0.00  0.00    +0.031 C 
ATOM     15  CA  PRO A   9     128.053 100.274 -51.665  0.00  0.00    +0.152 C 
BRANCH  15  16
ATOM     16  C   PRO A   9     127.090  99.169 -51.257  0.00  0.00    +0.244 C 
ATOM     17  O   PRO A   9     127.243  98.563 -50.211  0.00  0.00    -0.273 OA
ATOM     18  N   PRO A  10     126.073  98.896 -52.087  0.00  0.00    -0.272 N 
ATOM     19  CA  PRO A  10     125.121  97.821 -51.788  0.00  0.00    +0.152 C 
ATOM     20  CB  PRO A  10     124.196  97.809 -53.010  0.00  0.00    +0.031 C 
ATOM     21  CG  PRO A  10     124.270  99.217 -53.532  0.00  0.00    +0.024 C 
ATOM     22  CD  PRO A  10     125.687  99.662 -53.294  0.00  0.00    +0.094 C 
BRANCH  19  23
ATOM     23  C   PRO A  10     126.000  96.560 -51.765  0.00  0.00    +0.241 C 
ATOM     24  N   GLY A  11     125.788  95.686 -50.786  0.00  0.00    -0.295 N 
ATOM     25  H   GLY A  11     125.038  95.858 -50.086  0.00  0.00    +0.150 HD
ATOM     26  O   PRO A  10     126.866  96.390 -52.628  0.00  0.00    -0.273 OA
BRANCH  24  27
ATOM     27  CA  GLY A  11     126.610  94.487 -50.697  0.00  0.00    +0.176 C 
BRANCH  27  28
ATOM     28  C   GLY A  11     127.605  94.567 -49.554  0.00  0.00    +0.243 C 
ATOM     29  N   THR A  12     127.792  95.765 -49.012  0.00  0.00    -0.295 N 
ATOM     30  H   THR A  12     127.291  96.587 -49.406  0.00  0.00    +0.150 HD
ATOM     31  O   GLY A  11     128.215  93.567 -49.185  0.00  0.00    -0.273 OA
BRANCH  29  32
ATOM     32  CA  THR A  12     128.693  95.953 -47.866  0.00  0.00    +0.176 C 
BRANCH  32  33
ATOM     33  C   THR A  12     128.086  95.167 -46.709  0.00  0.00    +0.243 C 
ATOM     34  N   ARG A  13     128.933  94.566 -45.869  0.00  0.00    -0.297 N 
ATOM     35  H   ARG A  13     129.956  94.655 -46.031  0.00  0.00    +0.150 HD
ATOM     36  O   THR A  12     126.861  95.087 -46.579  0.00  0.00    -0.273 OA
BRANCH  34  37
ATOM     37  CA  ARG A  13     128.458  93.785 -44.726  0.00  0.00    +0.149 C 
BRANCH  37  38
ATOM     38  C   ARG A  13     129.160  94.230 -43.449  0.00  0.00    +0.241 C 
ATOM     39  N   VAL A  14     128.658  93.783 -42.293  0.00  0.00    -0.298 N 
ATOM     40  H   VAL A  14     127.830  93.153 -42.307  0.00  0.00    +0.150 HD
ATOM     41  O   ARG A  13     130.140  94.979 -43.512  0.00  0.00    -0.273 OA
BRANCH  39  42
ATOM     42  CA  VAL A  14     129.251  94.163 -41.005  0.00  0.00    +0.137 C 
BRANCH  42  43
ATOM     43  CB  VAL A  14     128.318  95.115 -40.222  0.00  0.00    +0.026 C 
ATOM     44  CG2 VAL A  14     129.039  95.635 -38.976  0.00  0.00    +0.002 C 
ATOM     45  CG1 VAL A  14     127.874  96.265 -41.108  0.00  0.00    +0.002 C 
ENDBRANCH  42  43
BRANCH  42  46
ATOM     46  C   VAL A  14     129.382  92.883 -40.196  0.00  0.00    +0.227 C 
ATOM     47  O   VAL A  14     128.397  92.137 -40.026  0.00  0.00    -0.286 OA
ENDBRANCH  42  46
ENDBRANCH  39  42
ENDBRANCH  37  38
BRANCH  37  48
ATOM     48  CB  ARG A  13     128.722  92.310 -44.956  0.00  0.00    +0.033 C 
BRANCH  48  49
ATOM     49  CG  ARG A  13     128.000  91.756 -46.162  0.00  0.00    +0.045 C 
BRANCH  49  50
ATOM     50  CD  ARG A  13     127.619  90.295 -45.951  0.00  0.00    +0.174 C 
BRANCH  50  51
ATOM     51  NE  ARG A  13     128.781  89.411 -45.991  0.00  0.00    -0.265 N 
ATOM     52  CZ  ARG A  13     128.695  88.091 -45.852  0.00  0.00    +0.342 C 
ATOM     53  NH2 ARG A  13     127.503  87.536 -45.648  0.00  0.00    -0.292 N 
ATOM     54 HH21 ARG A  13     127.421  86.505 -45.538  0.00  0.00    +0.255 HD
ATOM     55 HH22 ARG A  13     126.653  88.133 -45.599  0.00  0.00    +0.255 HD
ATOM     56  NH1 ARG A  13     129.792  87.344 -45.970  0.00  0.00    -0.292 N 
ATOM     57 HH11 ARG A  13     129.732  86.311 -45.862  0.00  0.00    +0.255 HD
ATOM     58 HH12 ARG A  13     130.708  87.794 -46.170  0.00  0.00    +0.255 HD
ATOM     59  HE  ARG A  13     129.720  89.834 -46.135  0.00  0.00    +0.259 HD
ENDBRANCH  50  51
ENDBRANCH  49  50
ENDBRANCH  48  49
ENDBRANCH  37  48
ENDBRANCH  34  37
ENDBRANCH  32  33
BRANCH  32  60
ATOM     60  CB  THR A  12     128.768  97.455 -47.495  0.00  0.00    +0.137 C 
ATOM     61  CG2 THR A  12     129.611  97.689 -46.229  0.00  0.00    +0.034 C 
BRANCH  60  62
ATOM     62  OG1 THR A  12     129.339  98.180 -48.591  0.00  0.00    -0.382 OA
ATOM     63  HG1 THR A  12     128.772  98.062 -49.394  0.00  0.00    +0.210 HD
ENDBRANCH  60  62
ENDBRANCH  32  60
ENDBRANCH  29  32
ENDBRANCH  27  28
ENDBRANCH  24  27
ENDBRANCH  19  23
ENDBRANCH  15  16
ENDBRANCH   7   9
ENDBRANCH   1   2
BRANCH   1  66
ATOM     64  C   SER A   6     128.987 107.122 -46.892  0.00  0.00    +0.243 C 
ATOM     65  O   SER A   6     129.386 106.182 -46.201  0.00  0.00    -0.273 OA
ATOM     66  N   THR A   7     128.042 107.008 -47.818  0.00  0.00    -0.295 N 
ATOM     67  H   THR A   7     127.799 107.853 -48.373  0.00  0.00    +0.150 HD
BRANCH  64  68
ATOM     68  CA  SER A   6     129.559 108.521 -46.721  0.00  0.00    +0.178 C 
BRANCH  68  71
ATOM     69  C   ASP A   5     129.880 109.810 -44.687  0.00  0.00    +0.241 C 
ATOM     70  O   ASP A   5     129.290 110.780 -45.167  0.00  0.00    -0.273 OA
ATOM     71  N   SER A   6     130.079 108.685 -45.368  0.00  0.00    -0.295 N 
ATOM     72  H   SER A   6     130.614 107.909 -44.928  0.00  0.00    +0.150 HD
BRANCH  69  73
ATOM     73  CA  ASP A   5     130.441 109.865 -43.275  0.00  0.00    +0.160 C 
BRANCH  73  76
ATOM     74  C   VAL A   4     129.471 107.947 -42.106  0.00  0.00    +0.241 C 
ATOM     75  O   VAL A   4     128.404 108.526 -41.911  0.00  0.00    -0.273 OA
ATOM     76  N   ASP A   5     130.517 108.507 -42.714  0.00  0.00    -0.297 N 
ATOM     77  H   ASP A   5     131.406 107.973 -42.793  0.00  0.00    +0.150 HD
BRANCH  74  78
ATOM     78  CA  VAL A   4     129.658 106.507 -41.605  0.00  0.00    +0.149 C 
BRANCH  78  81
ATOM     79  C   TRP A   3     129.047 105.562 -39.428  0.00  0.00    +0.241 C 
ATOM     80  O   TRP A   3     130.133 104.991 -39.311  0.00  0.00    -0.273 OA
ATOM     81  N   VAL A   4     128.705 106.270 -40.510  0.00  0.00    -0.297 N 
ATOM     82  H   VAL A   4     127.744 106.662 -40.579  0.00  0.00    +0.150 HD
BRANCH  79  83
ATOM     83  CA  TRP A   3     128.020 105.483 -38.300  0.00  0.00    +0.153 C 
BRANCH  83  85
ATOM     84  C   LEU A   2     126.894 103.387 -37.697  0.00  0.00    +0.241 C 
ATOM     85  N   TRP A   3     127.993 104.137 -37.735  0.00  0.00    -0.297 N 
ATOM     86  H   TRP A   3     128.874 103.746 -37.344  0.00  0.00    +0.150 HD
ATOM     87  O   LEU A   2     125.796 103.747 -38.121  0.00  0.00    -0.273 OA
BRANCH  84  88
ATOM     88  CA  LEU A   2     127.056 102.009 -37.063  0.00  0.00    +0.149 C 
BRANCH  88  91
ATOM     89  C   GLN A   1     126.359 101.784 -34.721  0.00  0.00    +0.238 C 
ATOM     90  O   GLN A   1     127.516 101.665 -34.301  0.00  0.00    -0.274 OA
ATOM     91  N   LEU A   2     126.046 101.934 -36.005  0.00  0.00    -0.297 N 
ATOM     92  H   LEU A   2     125.042 102.001 -36.269  0.00  0.00    +0.150 HD
BRANCH  89  93
ATOM     93  CA  GLN A   1     125.193 101.796 -33.764  0.00  0.00    +0.145 C 
BRANCH  93  94
ATOM     94  N   GLN A   1     125.418 100.931 -32.619  0.00  0.00    -0.238 NA
ATOM     95  H   GLN A   1     125.848 101.328 -31.759  0.00  0.00    +0.142 HD
ENDBRANCH  93  94
BRANCH  93  96
ATOM     96  CB  GLN A   1     125.006 103.231 -33.299  0.00  0.00    +0.036 C 
BRANCH  96  97
ATOM     97  CG  GLN A   1     123.897 103.415 -32.279  0.00  0.00    +0.087 C 
BRANCH  97  98
ATOM     98  CD  GLN A   1     123.836 104.843 -31.774  0.00  0.00    +0.219 C 
ATOM     99  NE2 GLN A   1     122.657 105.251 -31.329  0.00  0.00    -0.329 N 
ATOM    100 HE21 GLN A   1     122.546 106.217 -30.961  0.00  0.00    +0.145 HD
ATOM    101 HE22 GLN A   1     121.842 104.605 -31.348  0.00  0.00    +0.145 HD
ATOM    102  OE1 GLN A   1     124.834 105.567 -31.775  0.00  0.00    -0.275 OA
ENDBRANCH  97  98
ENDBRANCH  96  97
ENDBRANCH  93  96
ENDBRANCH  89  93
ENDBRANCH  88  91
BRANCH  88 103
ATOM    103  CB  LEU A   2     126.812 100.942 -38.129  0.00  0.00    +0.029 C 
BRANCH 103 104
ATOM    104  CG  LEU A   2     126.576  99.530 -37.592  0.00  0.00    +0.002 C 
ATOM    105  CD2 LEU A   2     127.805  99.044 -36.857  0.00  0.00    +0.000 C 
ATOM    106  CD1 LEU A   2     126.250  98.596 -38.762  0.00  0.00    +0.000 C 
ENDBRANCH 103 104
ENDBRANCH  88 103
ENDBRANCH  84  88
ENDBRANCH  83  85
BRANCH  83 107
ATOM    107  CB  TRP A   3     128.439 106.501 -37.223  0.00  0.00    +0.057 C 
BRANCH 107 108
ATOM    108  CG  TRP A   3     127.470 106.679 -36.083  0.00  0.00    -0.002 A 
ATOM    109  CD1 TRP A   3     127.395 105.958 -34.930  0.00  0.00    +0.068 A 
ATOM    110  NE1 TRP A   3     126.322 106.389 -34.163  0.00  0.00    -0.352 N 
ATOM    111  HE1 TRP A   3     126.039 106.003 -33.240  0.00  0.00    +0.166 HD
ATOM    112  CE2 TRP A   3     125.699 107.410 -34.831  0.00  0.00    +0.056 A 
ATOM    113  CZ2 TRP A   3     124.577 108.168 -34.476  0.00  0.00    +0.017 A 
ATOM    114  CH2 TRP A   3     124.171 109.145 -35.357  0.00  0.00    +0.001 A 
ATOM    115  CZ3 TRP A   3     124.851 109.371 -36.562  0.00  0.00    +0.000 A 
ATOM    116  CE3 TRP A   3     125.956 108.617 -36.913  0.00  0.00    +0.001 A 
ATOM    117  CD2 TRP A   3     126.397 107.617 -36.037  0.00  0.00    +0.013 A 
ENDBRANCH 107 108
ENDBRANCH  83 107
ENDBRANCH  79  83
ENDBRANCH  78  81
BRANCH  78 118
ATOM    118  CB  VAL A   4     129.451 105.569 -42.831  0.00  0.00    +0.027 C 
ATOM    119  CG2 VAL A   4     129.898 104.141 -42.483  0.00  0.00    +0.002 C 
ATOM    120  CG1 VAL A   4     128.010 105.575 -43.249  0.00  0.00    +0.002 C 
ENDBRANCH  78 118
ENDBRANCH  74  78
ENDBRANCH  73  76
BRANCH  73 121
ATOM    121  CB  ASP A   5     131.818 110.522 -43.307  0.00  0.00    +0.143 C 
BRANCH 121 122
ATOM    122  CG  ASP A   5     132.365 110.806 -41.921  0.00  0.00    +0.367 C 
ATOM    123  OD2 ASP A   5     131.570 111.192 -41.045  0.00  0.00    -0.246 OA
ATOM    124  OD1 ASP A   5     133.586 110.676 -41.720  0.00  0.00    -0.246 OA
ENDBRANCH 121 122
ENDBRANCH  73 121
ENDBRANCH  69  73
ENDBRANCH  68  71
BRANCH  68 125
ATOM    125  CB  SER A   6     130.640 108.812 -47.775  0.00  0.00    +0.166 C 
BRANCH 125 126
ATOM    126  OG  SER A   6     131.798 108.040 -47.582  0.00  0.00    -0.380 OA
ATOM    127  H   SER A   6     132.179 108.237 -46.690  0.00  0.00    +0.211 HD
ENDBRANCH 125 126
ENDBRANCH  68 125
ENDBRANCH  64  68
ENDBRANCH   1  66
BRANCH   1 128
ATOM    128  CB  THR A   7     126.116 106.095 -49.010  0.00  0.00    +0.137 C 
ATOM    129  CG2 THR A   7     125.418 104.828 -49.471  0.00  0.00    +0.034 C 
BRANCH 128 130
ATOM    130  OG1 THR A   7     125.189 106.907 -48.275  0.00  0.00    -0.382 OA
ATOM    131  HG1 THR A   7     124.409 107.117 -48.848  0.00  0.00    +0.210 HD
ENDBRANCH 128 130
ENDBRANCH   1 128
TORSDOF 46
REMARK  Name = ../refined-set-2016/2vuk/2vuk_pocket.pdb
REMARK  97 active torsions:
REMARK  status: ('A' for Active; 'I' for Inactive)
REMARK    1  A    between atoms: _1  and  _3
REMARK    2  A    between atoms: _3  and  _4
REMARK    3  A    between atoms: _3  and  _6
REMARK    4  A    between atoms: _6  and  _7
REMARK    5  A    between atoms: _12  and  _13
REMARK    6  A    between atoms: _15  and  _17
REMARK    7  A    between atoms: _17  and  _18
REMARK    8  A    between atoms: _20  and  _22
REMARK    9  A    between atoms: _22  and  _23
REMARK   10  A    between atoms: _22  and  _25
REMARK   11  A    between atoms: _25  and  _26
REMARK   12  A    between atoms: _32  and  _34
REMARK   13  A    between atoms: _34  and  _35
REMARK   14  A    between atoms: _34  and  _37
REMARK   15  A    between atoms: _37  and  _38
REMARK   16  A    between atoms: _38  and  _39
REMARK   17  A    between atoms: _39  and  _40
REMARK   18  A    between atoms: _49  and  _51
REMARK   19  A    between atoms: _51  and  _52
REMARK   20  A    between atoms: _51  and  _54
REMARK   21  A    between atoms: _54  and  _55
REMARK   22  A    between atoms: _55  and  _56
REMARK   23  A    between atoms: _61  and  _63
REMARK   24  A    between atoms: _63  and  _64
REMARK   25  A    between atoms: _63  and  _66
REMARK   26  A    between atoms: _66  and  _67
REMARK   27  A    between atoms: _70  and  _72
REMARK   28  A    between atoms: _72  and  _73
REMARK   29  A    between atoms: _72  and  _75
REMARK   30  A    between atoms: _75  and  _76
REMARK   31  A    between atoms: _86  and  _88
REMARK   32  A    between atoms: _88  and  _89
REMARK   33  A    between atoms: _88  and  _91
REMARK   34  A    between atoms: _94  and  _96
REMARK   35  A    between atoms: _96  and  _97
REMARK   36  A    between atoms: _96  and  _99
REMARK   37  A    between atoms: _99  and  _100
REMARK   38  A    between atoms: _103  and  _105
REMARK   39  A    between atoms: _105  and  _106
REMARK   40  A    between atoms: _105  and  _108
REMARK   41  A    between atoms: _108  and  _109
REMARK   42  A    between atoms: _111  and  _113
REMARK   43  A    between atoms: _113  and  _114
REMARK   44  A    between atoms: _113  and  _116
REMARK   45  A    between atoms: _116  and  _117
REMARK   46  A    between atoms: _121  and  _122
REMARK   47  A    between atoms: _128  and  _129
REMARK   48  A    between atoms: _135  and  _136
REMARK   49  A    between atoms: _141  and  _143
REMARK   50  A    between atoms: _143  and  _144
REMARK   51  A    between atoms: _146  and  _148
REMARK   52  A    between atoms: _148  and  _149
REMARK   53  A    between atoms: _148  and  _151
REMARK   54  A    between atoms: _151  and  _152
REMARK   55  A    between atoms: _155  and  _157
REMARK   56  A    between atoms: _157  and  _158
REMARK   57  A    between atoms: _157  and  _160
REMARK   58  A    between atoms: _160  and  _161
REMARK   59  A    between atoms: _161  and  _162
REMARK   60  A    between atoms: _162  and  _163
REMARK   61  A    between atoms: _172  and  _174
REMARK   62  A    between atoms: _174  and  _175
REMARK   63  A    between atoms: _174  and  _177
REMARK   64  A    between atoms: _181  and  _182
REMARK   65  A    between atoms: _187  and  _189
REMARK   66  A    between atoms: _189  and  _190
REMARK   67  A    between atoms: _189  and  _192
REMARK   68  A    between atoms: _194  and  _196
REMARK   69  A    between atoms: _196  and  _197
REMARK   70  A    between atoms: _196  and  _199
REMARK   71  A    between atoms: _199  and  _200
REMARK   72  A    between atoms: _200  and  _201
REMARK   73  A    between atoms: _205  and  _206
REMARK   74  A    between atoms: _212  and  _213
REMARK   75  A    between atoms: _218  and  _220
REMARK   76  A    between atoms: _220  and  _221
REMARK   77  A    between atoms: _220  and  _223
REMARK   78  A    between atoms: _223  and  _224
REMARK   79  A    between atoms: _226  and  _228
REMARK   80  A    between atoms: _228  and  _229
REMARK   81  A    between atoms: _228  and  _231
REMARK   82  A    between atoms: _231  and  _232
REMARK   83  A    between atoms: _235  and  _237
REMARK   84  A    between atoms: _237  and  _238
REMARK   85  A    between atoms: _237  and  _240
REMARK   86  A    between atoms: _242  and  _244
REMARK   87  A    between atoms: _244  and  _245
REMARK   88  A    between atoms: _244  and  _247
REMARK   89  A    between atoms: _247  and  _248
REMARK   90  A    between atoms: _251  and  _253
REMARK   91  A    between atoms: _253  and  _254
REMARK   92  A    between atoms: _253  and  _256
REMARK   93  A    between atoms: _256  and  _257
REMARK   94  A    between atoms: _260  and  _262
REMARK   95  A    between atoms: _262  and  _263
REMARK   96  A    between atoms: _262  and  _265
REMARK   97  A    between atoms: _265  and  _266
REMARK                            x       y       z     vdW  Elec       q    Type
REMARK                         _______ _______ _______ _____ _____    ______ ____
ROOT
ATOM      1  CA  GLU A   3     121.866  98.533 -44.527  0.00  0.00    +0.149 C 
ENDROOT
BRANCH   1   2
ATOM      2  C   GLU A   3     121.811  99.988 -44.098  0.00  0.00    +0.244 C 
ATOM      3  O   GLU A   3     122.281 100.361 -43.023  0.00  0.00    -0.273 OA
ATOM      4  N   PRO A   4     121.230 100.836 -44.955  0.00  0.00    -0.272 N 
ATOM      5  CA  PRO A   4     121.112 102.258 -44.638  0.00  0.00    +0.152 C 
ATOM      6  CB  PRO A   4     120.527 102.855 -45.924  0.00  0.00    +0.031 C 
ATOM      7  CG  PRO A   4     121.012 101.918 -47.012  0.00  0.00    +0.024 C 
ATOM      8  CD  PRO A   4     120.861 100.563 -46.359  0.00  0.00    +0.094 C 
BRANCH   5   9
ATOM      9  C   PRO A   4     120.166 102.453 -43.444  0.00  0.00    +0.244 C 
ATOM     10  N   PRO A   5     120.271 103.606 -42.767  0.00  0.00    -0.273 N 
ATOM     11  CA  PRO A   5     119.415 103.902 -41.617  0.00  0.00    +0.140 C 
ATOM     12  CB  PRO A   5     119.874 105.296 -41.195  0.00  0.00    +0.030 C 
ATOM     13  CG  PRO A   5     121.315 105.316 -41.567  0.00  0.00    +0.024 C 
ATOM     14  CD  PRO A   5     121.349 104.596 -42.902  0.00  0.00    +0.094 C 
ATOM     15  O   PRO A   4     119.347 101.584 -43.119  0.00  0.00    -0.273 OA
BRANCH  11  16
ATOM     16  C   PRO A   5     117.959 103.921 -42.062  0.00  0.00    +0.227 C 
ATOM     17  O   PRO A   5     117.671 104.262 -43.204  0.00  0.00    -0.286 OA
ENDBRANCH  11  16
ENDBRANCH   5   9
ENDBRANCH   1   2
BRANCH   1  19
ATOM     18  C   CYS A   2     124.092  97.553 -44.518  0.00  0.00    +0.242 C 
ATOM     19  N   GLU A   3     122.941  97.781 -43.896  0.00  0.00    -0.297 N 
ATOM     20  H   GLU A   3     122.804  97.413 -42.933  0.00  0.00    +0.150 HD
ATOM     21  O   CYS A   2     124.351  97.969 -45.653  0.00  0.00    -0.273 OA
BRANCH  18  22
ATOM     22  CA  CYS A   2     125.098  96.705 -43.762  0.00  0.00    +0.160 C 
BRANCH  22  25
ATOM     23  C   PRO A   1     124.265  94.419 -43.900  0.00  0.00    +0.239 C 
ATOM     24  O   PRO A   1     123.558  94.578 -42.908  0.00  0.00    -0.274 OA
ATOM     25  N   CYS A   2     125.057  95.372 -44.378  0.00  0.00    -0.296 N 
ATOM     26  H   CYS A   2     125.658  95.171 -45.202  0.00  0.00    +0.150 HD
BRANCH  23  31
ATOM     27  N   PRO A   1     124.112  92.025 -43.616  0.00  0.00    -0.210 NA
ATOM     28  CD  PRO A   1     122.983  91.122 -43.918  0.00  0.00    +0.089 C 
ATOM     29  CG  PRO A   1     122.704  91.427 -45.392  0.00  0.00    +0.021 C 
ATOM     30  CB  PRO A   1     122.982  92.912 -45.466  0.00  0.00    +0.028 C 
ATOM     31  CA  PRO A   1     124.255  93.075 -44.627  0.00  0.00    +0.149 C 
ENDBRANCH  23  31
ENDBRANCH  22  25
BRANCH  22  32
ATOM     32  CB  CYS A   2     126.494  97.316 -43.879  0.00  0.00    +0.098 C 
ATOM     33  SG  CYS A   2     126.705  98.725 -42.751  0.00  0.00    -0.080 S 
ENDBRANCH  22  32
ENDBRANCH  18  22
ENDBRANCH   1  19
BRANCH   1  34
ATOM     34  CB  GLU A   3     120.513  97.889 -44.202  0.00  0.00    +0.041 C 
BRANCH  34  35
ATOM     35  CG  GLU A   3     120.297  96.457 -44.718  0.00  0.00    +0.116 C 
BRANCH  35  36
ATOM     36  CD  GLU A   3     120.222  96.363 -46.241  0.00  0.00    +0.365 C 
ATOM     37  OE2 GLU A   3     119.955  95.254 -46.758  0.00  0.00    -0.246 OA
ATOM     38  OE1 GLU A   3     120.434  97.387 -46.929  0.00  0.00    -0.246 OA
ENDBRANCH  35  36
ENDBRANCH  34  35
ENDBRANCH   1  34
TORSDOF 11
REMARK  Name = ../refined-set-2016/2vuk/2vuk_pocket.pdb
REMARK  97 active torsions:
REMARK  status: ('A' for Active; 'I' for Inactive)
REMARK    1  A    between atoms: _1  and  _3
REMARK    2  A    between atoms: _3  and  _4
REMARK    3  A    between atoms: _3  and  _6
REMARK    4  A    between atoms: _6  and  _7
REMARK    5  A    between atoms: _12  and  _13
REMARK    6  A    between atoms: _15  and  _17
REMARK    7  A    between atoms: _17  and  _18
REMARK    8  A    between atoms: _20  and  _22
REMARK    9  A    between atoms: _22  and  _23
REMARK   10  A    between atoms: _22  and  _25
REMARK   11  A    between atoms: _25  and  _26
REMARK   12  A    between atoms: _32  and  _34
REMARK   13  A    between atoms: _34  and  _35
REMARK   14  A    between atoms: _34  and  _37
REMARK   15  A    between atoms: _37  and  _38
REMARK   16  A    between atoms: _38  and  _39
REMARK   17  A    between atoms: _39  and  _40
REMARK   18  A    between atoms: _49  and  _51
REMARK   19  A    between atoms: _51  and  _52
REMARK   20  A    between atoms: _51  and  _54
REMARK   21  A    between atoms: _54  and  _55
REMARK   22  A    between atoms: _55  and  _56
REMARK   23  A    between atoms: _61  and  _63
REMARK   24  A    between atoms: _63  and  _64
REMARK   25  A    between atoms: _63  and  _66
REMARK   26  A    between atoms: _66  and  _67
REMARK   27  A    between atoms: _70  and  _72
REMARK   28  A    between atoms: _72  and  _73
REMARK   29  A    between atoms: _72  and  _75
REMARK   30  A    between atoms: _75  and  _76
REMARK   31  A    between atoms: _86  and  _88
REMARK   32  A    between atoms: _88  and  _89
REMARK   33  A    between atoms: _88  and  _91
REMARK   34  A    between atoms: _94  and  _96
REMARK   35  A    between atoms: _96  and  _97
REMARK   36  A    between atoms: _96  and  _99
REMARK   37  A    between atoms: _99  and  _100
REMARK   38  A    between atoms: _103  and  _105
REMARK   39  A    between atoms: _105  and  _106
REMARK   40  A    between atoms: _105  and  _108
REMARK   41  A    between atoms: _108  and  _109
REMARK   42  A    between atoms: _111  and  _113
REMARK   43  A    between atoms: _113  and  _114
REMARK   44  A    between atoms: _113  and  _116
REMARK   45  A    between atoms: _116  and  _117
REMARK   46  A    between atoms: _121  and  _122
REMARK   47  A    between atoms: _128  and  _129
REMARK   48  A    between atoms: _135  and  _136
REMARK   49  A    between atoms: _141  and  _143
REMARK   50  A    between atoms: _143  and  _144
REMARK   51  A    between atoms: _146  and  _148
REMARK   52  A    between atoms: _148  and  _149
REMARK   53  A    between atoms: _148  and  _151
REMARK   54  A    between atoms: _151  and  _152
REMARK   55  A    between atoms: _155  and  _157
REMARK   56  A    between atoms: _157  and  _158
REMARK   57  A    between atoms: _157  and  _160
REMARK   58  A    between atoms: _160  and  _161
REMARK   59  A    between atoms: _161  and  _162
REMARK   60  A    between atoms: _162  and  _163
REMARK   61  A    between atoms: _172  and  _174
REMARK   62  A    between atoms: _174  and  _175
REMARK   63  A    between atoms: _174  and  _177
REMARK   64  A    between atoms: _181  and  _182
REMARK   65  A    between atoms: _187  and  _189
REMARK   66  A    between atoms: _189  and  _190
REMARK   67  A    between atoms: _189  and  _192
REMARK   68  A    between atoms: _194  and  _196
REMARK   69  A    between atoms: _196  and  _197
REMARK   70  A    between atoms: _196  and  _199
REMARK   71  A    between atoms: _199  and  _200
REMARK   72  A    between atoms: _200  and  _201
REMARK   73  A    between atoms: _205  and  _206
REMARK   74  A    between atoms: _212  and  _213
REMARK   75  A    between atoms: _218  and  _220
REMARK   76  A    between atoms: _220  and  _221
REMARK   77  A    between atoms: _220  and  _223
REMARK   78  A    between atoms: _223  and  _224
REMARK   79  A    between atoms: _226  and  _228
REMARK   80  A    between atoms: _228  and  _229
REMARK   81  A    between atoms: _228  and  _231
REMARK   82  A    between atoms: _231  and  _232
REMARK   83  A    between atoms: _235  and  _237
REMARK   84  A    between atoms: _237  and  _238
REMARK   85  A    between atoms: _237  and  _240
REMARK   86  A    between atoms: _242  and  _244
REMARK   87  A    between atoms: _244  and  _245
REMARK   88  A    between atoms: _244  and  _247
REMARK   89  A    between atoms: _247  and  _248
REMARK   90  A    between atoms: _251  and  _253
REMARK   91  A    between atoms: _253  and  _254
REMARK   92  A    between atoms: _253  and  _256
REMARK   93  A    between atoms: _256  and  _257
REMARK   94  A    between atoms: _260  and  _262
REMARK   95  A    between atoms: _262  and  _263
REMARK   96  A    between atoms: _262  and  _265
REMARK   97  A    between atoms: _265  and  _266
REMARK                            x       y       z     vdW  Elec       q    Type
REMARK                         _______ _______ _______ _____ _____    ______ ____
ROOT
ATOM      1  CA  CYS A   3     122.477 105.651 -38.076  0.00  0.00    +0.160 C 
ENDROOT
BRANCH   1   3
ATOM      2  C   ASP A   2     121.786 107.910 -38.612  0.00  0.00    +0.241 C 
ATOM      3  N   CYS A   3     121.504 106.738 -38.047  0.00  0.00    -0.296 N 
ATOM      4  H   CYS A   3     120.585 106.596 -37.582  0.00  0.00    +0.150 HD
ATOM      5  O   ASP A   2     122.855 108.142 -39.158  0.00  0.00    -0.273 OA
BRANCH   2   6
ATOM      6  CA  ASP A   2     120.716 108.997 -38.540  0.00  0.00    +0.160 C 
BRANCH   6   8
ATOM      7  C   SER A   1     118.428 108.163 -38.692  0.00  0.00    +0.241 C 
ATOM      8  N   ASP A   2     119.472 108.532 -37.948  0.00  0.00    -0.297 N 
ATOM      9  H   ASP A   2     119.394 108.486 -36.912  0.00  0.00    +0.150 HD
ATOM     10  O   SER A   1     118.445 108.180 -39.921  0.00  0.00    -0.274 OA
BRANCH   7  11
ATOM     11  CA  SER A   1     117.179 107.709 -37.947  0.00  0.00    +0.174 C 
BRANCH  11  12
ATOM     12  N   SER A   1     116.000 108.005 -38.763  0.00  0.00    -0.236 NA
ATOM     13  H   SER A   1     115.960 107.650 -39.740  0.00  0.00    +0.142 HD
ENDBRANCH  11  12
BRANCH  11  14
ATOM     14  CB  SER A   1     117.265 106.206 -37.659  0.00  0.00    +0.163 C 
BRANCH  14  15
ATOM     15  OG  SER A   1     118.477 105.884 -36.999  0.00  0.00    -0.380 OA
ATOM     16  H   SER A   1     118.508 104.910 -36.825  0.00  0.00    +0.211 HD
ENDBRANCH  14  15
ENDBRANCH  11  14
ENDBRANCH   7  11
ENDBRANCH   6   8
BRANCH   6  17
ATOM     17  CB  ASP A   2     121.291 110.178 -37.737  0.00  0.00    +0.143 C 
BRANCH  17  18
ATOM     18  CG  ASP A   2     120.434 111.440 -37.817  0.00  0.00    +0.367 C 
ATOM     19  OD2 ASP A   2     120.361 112.174 -36.799  0.00  0.00    -0.246 OA
ATOM     20  OD1 ASP A   2     119.856 111.703 -38.890  0.00  0.00    -0.246 OA
ENDBRANCH  17  18
ENDBRANCH   6  17
ENDBRANCH   2   6
ENDBRANCH   1   3
BRANCH   1  21
ATOM     21  C   CYS A   3     121.747 104.321 -38.146  0.00  0.00    +0.242 C 
ATOM     22  O   CYS A   3     120.525 104.253 -38.033  0.00  0.00    -0.273 OA
ATOM     23  N   THR A   4     122.522 103.261 -38.333  0.00  0.00    -0.295 N 
ATOM     24  H   THR A   4     123.548 103.398 -38.438  0.00  0.00    +0.150 HD
BRANCH  23  25
ATOM     25  CA  THR A   4     121.980 101.913 -38.396  0.00  0.00    +0.176 C 
BRANCH  25  26
ATOM     26  C   THR A   4     122.344 101.215 -37.099  0.00  0.00    +0.243 C 
ATOM     27  N   THR A   5     121.419 100.438 -36.562  0.00  0.00    -0.296 N 
ATOM     28  H   THR A   5     120.499 100.320 -37.032  0.00  0.00    +0.150 HD
ATOM     29  O   THR A   4     123.440 101.393 -36.583  0.00  0.00    -0.273 OA
BRANCH  27  30
ATOM     30  CA  THR A   5     121.694  99.750 -35.312  0.00  0.00    +0.164 C 
BRANCH  30  31
ATOM     31  C   THR A   5     121.588  98.237 -35.477  0.00  0.00    +0.229 C 
ATOM     32  O   THR A   5     120.668  97.738 -36.122  0.00  0.00    -0.286 OA
ENDBRANCH  30  31
BRANCH  30  33
ATOM     33  CB  THR A   5     120.710 100.231 -34.219  0.00  0.00    +0.136 C 
ATOM     34  CG2 THR A   5     120.927  99.485 -32.903  0.00  0.00    +0.034 C 
BRANCH  33  35
ATOM     35  OG1 THR A   5     120.910 101.639 -34.006  0.00  0.00    -0.382 OA
ATOM     36  HG1 THR A   5     120.740 102.127 -34.851  0.00  0.00    +0.210 HD
ENDBRANCH  33  35
ENDBRANCH  30  33
ENDBRANCH  27  30
ENDBRANCH  25  26
BRANCH  25  37
ATOM     37  CB  THR A   4     122.594 101.162 -39.558  0.00  0.00    +0.137 C 
ATOM     38  CG2 THR A   4     122.085  99.723 -39.604  0.00  0.00    +0.034 C 
BRANCH  37  39
ATOM     39  OG1 THR A   4     122.232 101.844 -40.769  0.00  0.00    -0.382 OA
ATOM     40  HG1 THR A   4     122.624 101.369 -41.544  0.00  0.00    +0.210 HD
ENDBRANCH  37  39
ENDBRANCH  25  37
ENDBRANCH  23  25
ENDBRANCH   1  21
BRANCH   1  41
ATOM     41  CB  CYS A   3     123.358 105.678 -36.821  0.00  0.00    +0.098 C 
ATOM     42  SG  CYS A   3     122.472 105.364 -35.273  0.00  0.00    -0.080 S 
ENDBRANCH   1  41
TORSDOF 19
REMARK  Name = ../refined-set-2016/2vuk/2vuk_pocket.pdb
REMARK  97 active torsions:
REMARK  status: ('A' for Active; 'I' for Inactive)
REMARK    1  A    between atoms: _1  and  _3
REMARK    2  A    between atoms: _3  and  _4
REMARK    3  A    between atoms: _3  and  _6
REMARK    4  A    between atoms: _6  and  _7
REMARK    5  A    between atoms: _12  and  _13
REMARK    6  A    between atoms: _15  and  _17
REMARK    7  A    between atoms: _17  and  _18
REMARK    8  A    between atoms: _20  and  _22
REMARK    9  A    between atoms: _22  and  _23
REMARK   10  A    between atoms: _22  and  _25
REMARK   11  A    between atoms: _25  and  _26
REMARK   12  A    between atoms: _32  and  _34
REMARK   13  A    between atoms: _34  and  _35
REMARK   14  A    between atoms: _34  and  _37
REMARK   15  A    between atoms: _37  and  _38
REMARK   16  A    between atoms: _38  and  _39
REMARK   17  A    between atoms: _39  and  _40
REMARK   18  A    between atoms: _49  and  _51
REMARK   19  A    between atoms: _51  and  _52
REMARK   20  A    between atoms: _51  and  _54
REMARK   21  A    between atoms: _54  and  _55
REMARK   22  A    between atoms: _55  and  _56
REMARK   23  A    between atoms: _61  and  _63
REMARK   24  A    between atoms: _63  and  _64
REMARK   25  A    between atoms: _63  and  _66
REMARK   26  A    between atoms: _66  and  _67
REMARK   27  A    between atoms: _70  and  _72
REMARK   28  A    between atoms: _72  and  _73
REMARK   29  A    between atoms: _72  and  _75
REMARK   30  A    between atoms: _75  and  _76
REMARK   31  A    between atoms: _86  and  _88
REMARK   32  A    between atoms: _88  and  _89
REMARK   33  A    between atoms: _88  and  _91
REMARK   34  A    between atoms: _94  and  _96
REMARK   35  A    between atoms: _96  and  _97
REMARK   36  A    between atoms: _96  and  _99
REMARK   37  A    between atoms: _99  and  _100
REMARK   38  A    between atoms: _103  and  _105
REMARK   39  A    between atoms: _105  and  _106
REMARK   40  A    between atoms: _105  and  _108
REMARK   41  A    between atoms: _108  and  _109
REMARK   42  A    between atoms: _111  and  _113
REMARK   43  A    between atoms: _113  and  _114
REMARK   44  A    between atoms: _113  and  _116
REMARK   45  A    between atoms: _116  and  _117
REMARK   46  A    between atoms: _121  and  _122
REMARK   47  A    between atoms: _128  and  _129
REMARK   48  A    between atoms: _135  and  _136
REMARK   49  A    between atoms: _141  and  _143
REMARK   50  A    between atoms: _143  and  _144
REMARK   51  A    between atoms: _146  and  _148
REMARK   52  A    between atoms: _148  and  _149
REMARK   53  A    between atoms: _148  and  _151
REMARK   54  A    between atoms: _151  and  _152
REMARK   55  A    between atoms: _155  and  _157
REMARK   56  A    between atoms: _157  and  _158
REMARK   57  A    between atoms: _157  and  _160
REMARK   58  A    between atoms: _160  and  _161
REMARK   59  A    between atoms: _161  and  _162
REMARK   60  A    between atoms: _162  and  _163
REMARK   61  A    between atoms: _172  and  _174
REMARK   62  A    between atoms: _174  and  _175
REMARK   63  A    between atoms: _174  and  _177
REMARK   64  A    between atoms: _181  and  _182
REMARK   65  A    between atoms: _187  and  _189
REMARK   66  A    between atoms: _189  and  _190
REMARK   67  A    between atoms: _189  and  _192
REMARK   68  A    between atoms: _194  and  _196
REMARK   69  A    between atoms: _196  and  _197
REMARK   70  A    between atoms: _196  and  _199
REMARK   71  A    between atoms: _199  and  _200
REMARK   72  A    between atoms: _200  and  _201
REMARK   73  A    between atoms: _205  and  _206
REMARK   74  A    between atoms: _212  and  _213
REMARK   75  A    between atoms: _218  and  _220
REMARK   76  A    between atoms: _220  and  _221
REMARK   77  A    between atoms: _220  and  _223
REMARK   78  A    between atoms: _223  and  _224
REMARK   79  A    between atoms: _226  and  _228
REMARK   80  A    between atoms: _228  and  _229
REMARK   81  A    between atoms: _228  and  _231
REMARK   82  A    between atoms: _231  and  _232
REMARK   83  A    between atoms: _235  and  _237
REMARK   84  A    between atoms: _237  and  _238
REMARK   85  A    between atoms: _237  and  _240
REMARK   86  A    between atoms: _242  and  _244
REMARK   87  A    between atoms: _244  and  _245
REMARK   88  A    between atoms: _244  and  _247
REMARK   89  A    between atoms: _247  and  _248
REMARK   90  A    between atoms: _251  and  _253
REMARK   91  A    between atoms: _253  and  _254
REMARK   92  A    between atoms: _253  and  _256
REMARK   93  A    between atoms: _256  and  _257
REMARK   94  A    between atoms: _260  and  _262
REMARK   95  A    between atoms: _262  and  _263
REMARK   96  A    between atoms: _262  and  _265
REMARK   97  A    between atoms: _265  and  _266
REMARK                            x       y       z     vdW  Elec       q    Type
REMARK                         _______ _______ _______ _____ _____    ______ ____
ROOT
ATOM      1  CA  LEU A   1     132.864  96.848 -42.154  0.00  0.00    +0.133 C 
ENDROOT
BRANCH   1   2
ATOM      2  N   LEU A   1     133.705  96.513 -41.004  0.00  0.00    -0.239 NA
ATOM      3  H   LEU A   1     134.490  97.142 -40.741  0.00  0.00    +0.142 HD
ENDBRANCH   1   2
BRANCH   1   4
ATOM      4  C   LEU A   1     133.616  96.186 -43.324  0.00  0.00    +0.224 C 
ATOM      5  O   LEU A   1     134.826  96.380 -43.462  0.00  0.00    -0.287 OA
ENDBRANCH   1   4
BRANCH   1   6
ATOM      6  CB  LEU A   1     132.810  98.369 -42.319  0.00  0.00    +0.025 C 
BRANCH   6   7
ATOM      7  CG  LEU A   1     131.821  98.840 -43.397  0.00  0.00    +0.002 C 
ATOM      8  CD2 LEU A   1     130.370  98.636 -42.933  0.00  0.00    +0.000 C 
ATOM      9  CD1 LEU A   1     132.072 100.316 -43.695  0.00  0.00    +0.000 C 
ENDBRANCH   6   7
ENDBRANCH   1   6
TORSDOF 4
REMARK  Name = ../refined-set-2016/2vuk/2vuk_pocket.pdb
REMARK  97 active torsions:
REMARK  status: ('A' for Active; 'I' for Inactive)
REMARK    1  A    between atoms: _1  and  _3
REMARK    2  A    between atoms: _3  and  _4
REMARK    3  A    between atoms: _3  and  _6
REMARK    4  A    between atoms: _6  and  _7
REMARK    5  A    between atoms: _12  and  _13
REMARK    6  A    between atoms: _15  and  _17
REMARK    7  A    between atoms: _17  and  _18
REMARK    8  A    between atoms: _20  and  _22
REMARK    9  A    between atoms: _22  and  _23
REMARK   10  A    between atoms: _22  and  _25
REMARK   11  A    between atoms: _25  and  _26
REMARK   12  A    between atoms: _32  and  _34
REMARK   13  A    between atoms: _34  and  _35
REMARK   14  A    between atoms: _34  and  _37
REMARK   15  A    between atoms: _37  and  _38
REMARK   16  A    between atoms: _38  and  _39
REMARK   17  A    between atoms: _39  and  _40
REMARK   18  A    between atoms: _49  and  _51
REMARK   19  A    between atoms: _51  and  _52
REMARK   20  A    between atoms: _51  and  _54
REMARK   21  A    between atoms: _54  and  _55
REMARK   22  A    between atoms: _55  and  _56
REMARK   23  A    between atoms: _61  and  _63
REMARK   24  A    between atoms: _63  and  _64
REMARK   25  A    between atoms: _63  and  _66
REMARK   26  A    between atoms: _66  and  _67
REMARK   27  A    between atoms: _70  and  _72
REMARK   28  A    between atoms: _72  and  _73
REMARK   29  A    between atoms: _72  and  _75
REMARK   30  A    between atoms: _75  and  _76
REMARK   31  A    between atoms: _86  and  _88
REMARK   32  A    between atoms: _88  and  _89
REMARK   33  A    between atoms: _88  and  _91
REMARK   34  A    between atoms: _94  and  _96
REMARK   35  A    between atoms: _96  and  _97
REMARK   36  A    between atoms: _96  and  _99
REMARK   37  A    between atoms: _99  and  _100
REMARK   38  A    between atoms: _103  and  _105
REMARK   39  A    between atoms: _105  and  _106
REMARK   40  A    between atoms: _105  and  _108
REMARK   41  A    between atoms: _108  and  _109
REMARK   42  A    between atoms: _111  and  _113
REMARK   43  A    between atoms: _113  and  _114
REMARK   44  A    between atoms: _113  and  _116
REMARK   45  A    between atoms: _116  and  _117
REMARK   46  A    between atoms: _121  and  _122
REMARK   47  A    between atoms: _128  and  _129
REMARK   48  A    between atoms: _135  and  _136
REMARK   49  A    between atoms: _141  and  _143
REMARK   50  A    between atoms: _143  and  _144
REMARK   51  A    between atoms: _146  and  _148
REMARK   52  A    between atoms: _148  and  _149
REMARK   53  A    between atoms: _148  and  _151
REMARK   54  A    between atoms: _151  and  _152
REMARK   55  A    between atoms: _155  and  _157
REMARK   56  A    between atoms: _157  and  _158
REMARK   57  A    between atoms: _157  and  _160
REMARK   58  A    between atoms: _160  and  _161
REMARK   59  A    between atoms: _161  and  _162
REMARK   60  A    between atoms: _162  and  _163
REMARK   61  A    between atoms: _172  and  _174
REMARK   62  A    between atoms: _174  and  _175
REMARK   63  A    between atoms: _174  and  _177
REMARK   64  A    between atoms: _181  and  _182
REMARK   65  A    between atoms: _187  and  _189
REMARK   66  A    between atoms: _189  and  _190
REMARK   67  A    between atoms: _189  and  _192
REMARK   68  A    between atoms: _194  and  _196
REMARK   69  A    between atoms: _196  and  _197
REMARK   70  A    between atoms: _196  and  _199
REMARK   71  A    between atoms: _199  and  _200
REMARK   72  A    between atoms: _200  and  _201
REMARK   73  A    between atoms: _205  and  _206
REMARK   74  A    between atoms: _212  and  _213
REMARK   75  A    between atoms: _218  and  _220
REMARK   76  A    between atoms: _220  and  _221
REMARK   77  A    between atoms: _220  and  _223
REMARK   78  A    between atoms: _223  and  _224
REMARK   79  A    between atoms: _226  and  _228
REMARK   80  A    between atoms: _228  and  _229
REMARK   81  A    between atoms: _228  and  _231
REMARK   82  A    between atoms: _231  and  _232
REMARK   83  A    between atoms: _235  and  _237
REMARK   84  A    between atoms: _237  and  _238
REMARK   85  A    between atoms: _237  and  _240
REMARK   86  A    between atoms: _242  and  _244
REMARK   87  A    between atoms: _244  and  _245
REMARK   88  A    between atoms: _244  and  _247
REMARK   89  A    between atoms: _247  and  _248
REMARK   90  A    between atoms: _251  and  _253
REMARK   91  A    between atoms: _253  and  _254
REMARK   92  A    between atoms: _253  and  _256
REMARK   93  A    between atoms: _256  and  _257
REMARK   94  A    between atoms: _260  and  _262
REMARK   95  A    between atoms: _262  and  _263
REMARK   96  A    between atoms: _262  and  _265
REMARK   97  A    between atoms: _265  and  _266
REMARK                            x       y       z     vdW  Elec       q    Type
REMARK                         _______ _______ _______ _____ _____    ______ ____
ROOT
ATOM      1  O   HOH     1     128.581 113.316 -43.917  0.00  0.00    +0.000 OA
ENDROOT
TORSDOF 0
REMARK  Name = ../refined-set-2016/2vuk/2vuk_pocket.pdb
REMARK  97 active torsions:
REMARK  status: ('A' for Active; 'I' for Inactive)
REMARK    1  A    between atoms: _1  and  _3
REMARK    2  A    between atoms: _3  and  _4
REMARK    3  A    between atoms: _3  and  _6
REMARK    4  A    between atoms: _6  and  _7
REMARK    5  A    between atoms: _12  and  _13
REMARK    6  A    between atoms: _15  and  _17
REMARK    7  A    between atoms: _17  and  _18
REMARK    8  A    between atoms: _20  and  _22
REMARK    9  A    between atoms: _22  and  _23
REMARK   10  A    between atoms: _22  and  _25
REMARK   11  A    between atoms: _25  and  _26
REMARK   12  A    between atoms: _32  and  _34
REMARK   13  A    between atoms: _34  and  _35
REMARK   14  A    between atoms: _34  and  _37
REMARK   15  A    between atoms: _37  and  _38
REMARK   16  A    between atoms: _38  and  _39
REMARK   17  A    between atoms: _39  and  _40
REMARK   18  A    between atoms: _49  and  _51
REMARK   19  A    between atoms: _51  and  _52
REMARK   20  A    between atoms: _51  and  _54
REMARK   21  A    between atoms: _54  and  _55
REMARK   22  A    between atoms: _55  and  _56
REMARK   23  A    between atoms: _61  and  _63
REMARK   24  A    between atoms: _63  and  _64
REMARK   25  A    between atoms: _63  and  _66
REMARK   26  A    between atoms: _66  and  _67
REMARK   27  A    between atoms: _70  and  _72
REMARK   28  A    between atoms: _72  and  _73
REMARK   29  A    between atoms: _72  and  _75
REMARK   30  A    between atoms: _75  and  _76
REMARK   31  A    between atoms: _86  and  _88
REMARK   32  A    between atoms: _88  and  _89
REMARK   33  A    between atoms: _88  and  _91
REMARK   34  A    between atoms: _94  and  _96
REMARK   35  A    between atoms: _96  and  _97
REMARK   36  A    between atoms: _96  and  _99
REMARK   37  A    between atoms: _99  and  _100
REMARK   38  A    between atoms: _103  and  _105
REMARK   39  A    between atoms: _105  and  _106
REMARK   40  A    between atoms: _105  and  _108
REMARK   41  A    between atoms: _108  and  _109
REMARK   42  A    between atoms: _111  and  _113
REMARK   43  A    between atoms: _113  and  _114
REMARK   44  A    between atoms: _113  and  _116
REMARK   45  A    between atoms: _116  and  _117
REMARK   46  A    between atoms: _121  and  _122
REMARK   47  A    between atoms: _128  and  _129
REMARK   48  A    between atoms: _135  and  _136
REMARK   49  A    between atoms: _141  and  _143
REMARK   50  A    between atoms: _143  and  _144
REMARK   51  A    between atoms: _146  and  _148
REMARK   52  A    between atoms: _148  and  _149
REMARK   53  A    between atoms: _148  and  _151
REMARK   54  A    between atoms: _151  and  _152
REMARK   55  A    between atoms: _155  and  _157
REMARK   56  A    between atoms: _157  and  _158
REMARK   57  A    between atoms: _157  and  _160
REMARK   58  A    between atoms: _160  and  _161
REMARK   59  A    between atoms: _161  and  _162
REMARK   60  A    between atoms: _162  and  _163
REMARK   61  A    between atoms: _172  and  _174
REMARK   62  A    between atoms: _174  and  _175
REMARK   63  A    between atoms: _174  and  _177
REMARK   64  A    between atoms: _181  and  _182
REMARK   65  A    between atoms: _187  and  _189
REMARK   66  A    between atoms: _189  and  _190
REMARK   67  A    between atoms: _189  and  _192
REMARK   68  A    between atoms: _194  and  _196
REMARK   69  A    between atoms: _196  and  _197
REMARK   70  A    between atoms: _196  and  _199
REMARK   71  A    between atoms: _199  and  _200
REMARK   72  A    between atoms: _200  and  _201
REMARK   73  A    between atoms: _205  and  _206
REMARK   74  A    between atoms: _212  and  _213
REMARK   75  A    between atoms: _218  and  _220
REMARK   76  A    between atoms: _220  and  _221
REMARK   77  A    between atoms: _220  and  _223
REMARK   78  A    between atoms: _223  and  _224
REMARK   79  A    between atoms: _226  and  _228
REMARK   80  A    between atoms: _228  and  _229
REMARK   81  A    between atoms: _228  and  _231
REMARK   82  A    between atoms: _231  and  _232
REMARK   83  A    between atoms: _235  and  _237
REMARK   84  A    between atoms: _237  and  _238
REMARK   85  A    between atoms: _237  and  _240
REMARK   86  A    between atoms: _242  and  _244
REMARK   87  A    between atoms: _244  and  _245
REMARK   88  A    between atoms: _244  and  _247
REMARK   89  A    between atoms: _247  and  _248
REMARK   90  A    between atoms: _251  and  _253
REMARK   91  A    between atoms: _253  and  _254
REMARK   92  A    between atoms: _253  and  _256
REMARK   93  A    between atoms: _256  and  _257
REMARK   94  A    between atoms: _260  and  _262
REMARK   95  A    between atoms: _262  and  _263
REMARK   96  A    between atoms: _262  and  _265
REMARK   97  A    between atoms: _265  and  _266
REMARK                            x       y       z     vdW  Elec       q    Type
REMARK                         _______ _______ _______ _____ _____    ______ ____
ROOT
ATOM      1  O   HOH     1     129.062 103.843 -52.230  0.00  0.00    +0.000 OA
ENDROOT
TORSDOF 0
REMARK  Name = ../refined-set-2016/2vuk/2vuk_pocket.pdb
REMARK  97 active torsions:
REMARK  status: ('A' for Active; 'I' for Inactive)
REMARK    1  A    between atoms: _1  and  _3
REMARK    2  A    between atoms: _3  and  _4
REMARK    3  A    between atoms: _3  and  _6
REMARK    4  A    between atoms: _6  and  _7
REMARK    5  A    between atoms: _12  and  _13
REMARK    6  A    between atoms: _15  and  _17
REMARK    7  A    between atoms: _17  and  _18
REMARK    8  A    between atoms: _20  and  _22
REMARK    9  A    between atoms: _22  and  _23
REMARK   10  A    between atoms: _22  and  _25
REMARK   11  A    between atoms: _25  and  _26
REMARK   12  A    between atoms: _32  and  _34
REMARK   13  A    between atoms: _34  and  _35
REMARK   14  A    between atoms: _34  and  _37
REMARK   15  A    between atoms: _37  and  _38
REMARK   16  A    between atoms: _38  and  _39
REMARK   17  A    between atoms: _39  and  _40
REMARK   18  A    between atoms: _49  and  _51
REMARK   19  A    between atoms: _51  and  _52
REMARK   20  A    between atoms: _51  and  _54
REMARK   21  A    between atoms: _54  and  _55
REMARK   22  A    between atoms: _55  and  _56
REMARK   23  A    between atoms: _61  and  _63
REMARK   24  A    between atoms: _63  and  _64
REMARK   25  A    between atoms: _63  and  _66
REMARK   26  A    between atoms: _66  and  _67
REMARK   27  A    between atoms: _70  and  _72
REMARK   28  A    between atoms: _72  and  _73
REMARK   29  A    between atoms: _72  and  _75
REMARK   30  A    between atoms: _75  and  _76
REMARK   31  A    between atoms: _86  and  _88
REMARK   32  A    between atoms: _88  and  _89
REMARK   33  A    between atoms: _88  and  _91
REMARK   34  A    between atoms: _94  and  _96
REMARK   35  A    between atoms: _96  and  _97
REMARK   36  A    between atoms: _96  and  _99
REMARK   37  A    between atoms: _99  and  _100
REMARK   38  A    between atoms: _103  and  _105
REMARK   39  A    between atoms: _105  and  _106
REMARK   40  A    between atoms: _105  and  _108
REMARK   41  A    between atoms: _108  and  _109
REMARK   42  A    between atoms: _111  and  _113
REMARK   43  A    between atoms: _113  and  _114
REMARK   44  A    between atoms: _113  and  _116
REMARK   45  A    between atoms: _116  and  _117
REMARK   46  A    between atoms: _121  and  _122
REMARK   47  A    between atoms: _128  and  _129
REMARK   48  A    between atoms: _135  and  _136
REMARK   49  A    between atoms: _141  and  _143
REMARK   50  A    between atoms: _143  and  _144
REMARK   51  A    between atoms: _146  and  _148
REMARK   52  A    between atoms: _148  and  _149
REMARK   53  A    between atoms: _148  and  _151
REMARK   54  A    between atoms: _151  and  _152
REMARK   55  A    between atoms: _155  and  _157
REMARK   56  A    between atoms: _157  and  _158
REMARK   57  A    between atoms: _157  and  _160
REMARK   58  A    between atoms: _160  and  _161
REMARK   59  A    between atoms: _161  and  _162
REMARK   60  A    between atoms: _162  and  _163
REMARK   61  A    between atoms: _172  and  _174
REMARK   62  A    between atoms: _174  and  _175
REMARK   63  A    between atoms: _174  and  _177
REMARK   64  A    between atoms: _181  and  _182
REMARK   65  A    between atoms: _187  and  _189
REMARK   66  A    between atoms: _189  and  _190
REMARK   67  A    between atoms: _189  and  _192
REMARK   68  A    between atoms: _194  and  _196
REMARK   69  A    between atoms: _196  and  _197
REMARK   70  A    between atoms: _196  and  _199
REMARK   71  A    between atoms: _199  and  _200
REMARK   72  A    between atoms: _200  and  _201
REMARK   73  A    between atoms: _205  and  _206
REMARK   74  A    between atoms: _212  and  _213
REMARK   75  A    between atoms: _218  and  _220
REMARK   76  A    between atoms: _220  and  _221
REMARK   77  A    between atoms: _220  and  _223
REMARK   78  A    between atoms: _223  and  _224
REMARK   79  A    between atoms: _226  and  _228
REMARK   80  A    between atoms: _228  and  _229
REMARK   81  A    between atoms: _228  and  _231
REMARK   82  A    between atoms: _231  and  _232
REMARK   83  A    between atoms: _235  and  _237
REMARK   84  A    between atoms: _237  and  _238
REMARK   85  A    between atoms: _237  and  _240
REMARK   86  A    between atoms: _242  and  _244
REMARK   87  A    between atoms: _244  and  _245
REMARK   88  A    between atoms: _244  and  _247
REMARK   89  A    between atoms: _247  and  _248
REMARK   90  A    between atoms: _251  and  _253
REMARK   91  A    between atoms: _253  and  _254
REMARK   92  A    between atoms: _253  and  _256
REMARK   93  A    between atoms: _256  and  _257
REMARK   94  A    between atoms: _260  and  _262
REMARK   95  A    between atoms: _262  and  _263
REMARK   96  A    between atoms: _262  and  _265
REMARK   97  A    between atoms: _265  and  _266
REMARK                            x       y       z     vdW  Elec       q    Type
REMARK                         _______ _______ _______ _____ _____    ______ ____
ROOT
ATOM      1  O   HOH     1     127.555 109.555 -49.449  0.00  0.00    +0.000 OA
ENDROOT
TORSDOF 0
REMARK  Name = ../refined-set-2016/2vuk/2vuk_pocket.pdb
REMARK  97 active torsions:
REMARK  status: ('A' for Active; 'I' for Inactive)
REMARK    1  A    between atoms: _1  and  _3
REMARK    2  A    between atoms: _3  and  _4
REMARK    3  A    between atoms: _3  and  _6
REMARK    4  A    between atoms: _6  and  _7
REMARK    5  A    between atoms: _12  and  _13
REMARK    6  A    between atoms: _15  and  _17
REMARK    7  A    between atoms: _17  and  _18
REMARK    8  A    between atoms: _20  and  _22
REMARK    9  A    between atoms: _22  and  _23
REMARK   10  A    between atoms: _22  and  _25
REMARK   11  A    between atoms: _25  and  _26
REMARK   12  A    between atoms: _32  and  _34
REMARK   13  A    between atoms: _34  and  _35
REMARK   14  A    between atoms: _34  and  _37
REMARK   15  A    between atoms: _37  and  _38
REMARK   16  A    between atoms: _38  and  _39
REMARK   17  A    between atoms: _39  and  _40
REMARK   18  A    between atoms: _49  and  _51
REMARK   19  A    between atoms: _51  and  _52
REMARK   20  A    between atoms: _51  and  _54
REMARK   21  A    between atoms: _54  and  _55
REMARK   22  A    between atoms: _55  and  _56
REMARK   23  A    between atoms: _61  and  _63
REMARK   24  A    between atoms: _63  and  _64
REMARK   25  A    between atoms: _63  and  _66
REMARK   26  A    between atoms: _66  and  _67
REMARK   27  A    between atoms: _70  and  _72
REMARK   28  A    between atoms: _72  and  _73
REMARK   29  A    between atoms: _72  and  _75
REMARK   30  A    between atoms: _75  and  _76
REMARK   31  A    between atoms: _86  and  _88
REMARK   32  A    between atoms: _88  and  _89
REMARK   33  A    between atoms: _88  and  _91
REMARK   34  A    between atoms: _94  and  _96
REMARK   35  A    between atoms: _96  and  _97
REMARK   36  A    between atoms: _96  and  _99
REMARK   37  A    between atoms: _99  and  _100
REMARK   38  A    between atoms: _103  and  _105
REMARK   39  A    between atoms: _105  and  _106
REMARK   40  A    between atoms: _105  and  _108
REMARK   41  A    between atoms: _108  and  _109
REMARK   42  A    between atoms: _111  and  _113
REMARK   43  A    between atoms: _113  and  _114
REMARK   44  A    between atoms: _113  and  _116
REMARK   45  A    between atoms: _116  and  _117
REMARK   46  A    between atoms: _121  and  _122
REMARK   47  A    between atoms: _128  and  _129
REMARK   48  A    between atoms: _135  and  _136
REMARK   49  A    between atoms: _141  and  _143
REMARK   50  A    between atoms: _143  and  _144
REMARK   51  A    between atoms: _146  and  _148
REMARK   52  A    between atoms: _148  and  _149
REMARK   53  A    between atoms: _148  and  _151
REMARK   54  A    between atoms: _151  and  _152
REMARK   55  A    between atoms: _155  and  _157
REMARK   56  A    between atoms: _157  and  _158
REMARK   57  A    between atoms: _157  and  _160
REMARK   58  A    between atoms: _160  and  _161
REMARK   59  A    between atoms: _161  and  _162
REMARK   60  A    between atoms: _162  and  _163
REMARK   61  A    between atoms: _172  and  _174
REMARK   62  A    between atoms: _174  and  _175
REMARK   63  A    between atoms: _174  and  _177
REMARK   64  A    between atoms: _181  and  _182
REMARK   65  A    between atoms: _187  and  _189
REMARK   66  A    between atoms: _189  and  _190
REMARK   67  A    between atoms: _189  and  _192
REMARK   68  A    between atoms: _194  and  _196
REMARK   69  A    between atoms: _196  and  _197
REMARK   70  A    between atoms: _196  and  _199
REMARK   71  A    between atoms: _199  and  _200
REMARK   72  A    between atoms: _200  and  _201
REMARK   73  A    between atoms: _205  and  _206
REMARK   74  A    between atoms: _212  and  _213
REMARK   75  A    between atoms: _218  and  _220
REMARK   76  A    between atoms: _220  and  _221
REMARK   77  A    between atoms: _220  and  _223
REMARK   78  A    between atoms: _223  and  _224
REMARK   79  A    between atoms: _226  and  _228
REMARK   80  A    between atoms: _228  and  _229
REMARK   81  A    between atoms: _228  and  _231
REMARK   82  A    between atoms: _231  and  _232
REMARK   83  A    between atoms: _235  and  _237
REMARK   84  A    between atoms: _237  and  _238
REMARK   85  A    between atoms: _237  and  _240
REMARK   86  A    between atoms: _242  and  _244
REMARK   87  A    between atoms: _244  and  _245
REMARK   88  A    between atoms: _244  and  _247
REMARK   89  A    between atoms: _247  and  _248
REMARK   90  A    between atoms: _251  and  _253
REMARK   91  A    between atoms: _253  and  _254
REMARK   92  A    between atoms: _253  and  _256
REMARK   93  A    between atoms: _256  and  _257
REMARK   94  A    between atoms: _260  and  _262
REMARK   95  A    between atoms: _262  and  _263
REMARK   96  A    between atoms: _262  and  _265
REMARK   97  A    between atoms: _265  and  _266
REMARK                            x       y       z     vdW  Elec       q    Type
REMARK                         _______ _______ _______ _____ _____    ______ ____
ROOT
ATOM      1  O   HOH     1     124.340 100.878 -49.626  0.00  0.00    +0.000 OA
ENDROOT
TORSDOF 0
REMARK  Name = ../refined-set-2016/2vuk/2vuk_pocket.pdb
REMARK  97 active torsions:
REMARK  status: ('A' for Active; 'I' for Inactive)
REMARK    1  A    between atoms: _1  and  _3
REMARK    2  A    between atoms: _3  and  _4
REMARK    3  A    between atoms: _3  and  _6
REMARK    4  A    between atoms: _6  and  _7
REMARK    5  A    between atoms: _12  and  _13
REMARK    6  A    between atoms: _15  and  _17
REMARK    7  A    between atoms: _17  and  _18
REMARK    8  A    between atoms: _20  and  _22
REMARK    9  A    between atoms: _22  and  _23
REMARK   10  A    between atoms: _22  and  _25
REMARK   11  A    between atoms: _25  and  _26
REMARK   12  A    between atoms: _32  and  _34
REMARK   13  A    between atoms: _34  and  _35
REMARK   14  A    between atoms: _34  and  _37
REMARK   15  A    between atoms: _37  and  _38
REMARK   16  A    between atoms: _38  and  _39
REMARK   17  A    between atoms: _39  and  _40
REMARK   18  A    between atoms: _49  and  _51
REMARK   19  A    between atoms: _51  and  _52
REMARK   20  A    between atoms: _51  and  _54
REMARK   21  A    between atoms: _54  and  _55
REMARK   22  A    between atoms: _55  and  _56
REMARK   23  A    between atoms: _61  and  _63
REMARK   24  A    between atoms: _63  and  _64
REMARK   25  A    between atoms: _63  and  _66
REMARK   26  A    between atoms: _66  and  _67
REMARK   27  A    between atoms: _70  and  _72
REMARK   28  A    between atoms: _72  and  _73
REMARK   29  A    between atoms: _72  and  _75
REMARK   30  A    between atoms: _75  and  _76
REMARK   31  A    between atoms: _86  and  _88
REMARK   32  A    between atoms: _88  and  _89
REMARK   33  A    between atoms: _88  and  _91
REMARK   34  A    between atoms: _94  and  _96
REMARK   35  A    between atoms: _96  and  _97
REMARK   36  A    between atoms: _96  and  _99
REMARK   37  A    between atoms: _99  and  _100
REMARK   38  A    between atoms: _103  and  _105
REMARK   39  A    between atoms: _105  and  _106
REMARK   40  A    between atoms: _105  and  _108
REMARK   41  A    between atoms: _108  and  _109
REMARK   42  A    between atoms: _111  and  _113
REMARK   43  A    between atoms: _113  and  _114
REMARK   44  A    between atoms: _113  and  _116
REMARK   45  A    between atoms: _116  and  _117
REMARK   46  A    between atoms: _121  and  _122
REMARK   47  A    between atoms: _128  and  _129
REMARK   48  A    between atoms: _135  and  _136
REMARK   49  A    between atoms: _141  and  _143
REMARK   50  A    between atoms: _143  and  _144
REMARK   51  A    between atoms: _146  and  _148
REMARK   52  A    between atoms: _148  and  _149
REMARK   53  A    between atoms: _148  and  _151
REMARK   54  A    between atoms: _151  and  _152
REMARK   55  A    between atoms: _155  and  _157
REMARK   56  A    between atoms: _157  and  _158
REMARK   57  A    between atoms: _157  and  _160
REMARK   58  A    between atoms: _160  and  _161
REMARK   59  A    between atoms: _161  and  _162
REMARK   60  A    between atoms: _162  and  _163
REMARK   61  A    between atoms: _172  and  _174
REMARK   62  A    between atoms: _174  and  _175
REMARK   63  A    between atoms: _174  and  _177
REMARK   64  A    between atoms: _181  and  _182
REMARK   65  A    between atoms: _187  and  _189
REMARK   66  A    between atoms: _189  and  _190
REMARK   67  A    between atoms: _189  and  _192
REMARK   68  A    between atoms: _194  and  _196
REMARK   69  A    between atoms: _196  and  _197
REMARK   70  A    between atoms: _196  and  _199
REMARK   71  A    between atoms: _199  and  _200
REMARK   72  A    between atoms: _200  and  _201
REMARK   73  A    between atoms: _205  and  _206
REMARK   74  A    between atoms: _212  and  _213
REMARK   75  A    between atoms: _218  and  _220
REMARK   76  A    between atoms: _220  and  _221
REMARK   77  A    between atoms: _220  and  _223
REMARK   78  A    between atoms: _223  and  _224
REMARK   79  A    between atoms: _226  and  _228
REMARK   80  A    between atoms: _228  and  _229
REMARK   81  A    between atoms: _228  and  _231
REMARK   82  A    between atoms: _231  and  _232
REMARK   83  A    between atoms: _235  and  _237
REMARK   84  A    between atoms: _237  and  _238
REMARK   85  A    between atoms: _237  and  _240
REMARK   86  A    between atoms: _242  and  _244
REMARK   87  A    between atoms: _244  and  _245
REMARK   88  A    between atoms: _244  and  _247
REMARK   89  A    between atoms: _247  and  _248
REMARK   90  A    between atoms: _251  and  _253
REMARK   91  A    between atoms: _253  and  _254
REMARK   92  A    between atoms: _253  and  _256
REMARK   93  A    between atoms: _256  and  _257
REMARK   94  A    between atoms: _260  and  _262
REMARK   95  A    between atoms: _262  and  _263
REMARK   96  A    between atoms: _262  and  _265
REMARK   97  A    between atoms: _265  and  _266
REMARK                            x       y       z     vdW  Elec       q    Type
REMARK                         _______ _______ _______ _____ _____    ______ ____
ROOT
ATOM      1  O   HOH     1     124.558  95.698 -48.204  0.00  0.00    +0.000 OA
ENDROOT
TORSDOF 0
REMARK  Name = ../refined-set-2016/2vuk/2vuk_pocket.pdb
REMARK  97 active torsions:
REMARK  status: ('A' for Active; 'I' for Inactive)
REMARK    1  A    between atoms: _1  and  _3
REMARK    2  A    between atoms: _3  and  _4
REMARK    3  A    between atoms: _3  and  _6
REMARK    4  A    between atoms: _6  and  _7
REMARK    5  A    between atoms: _12  and  _13
REMARK    6  A    between atoms: _15  and  _17
REMARK    7  A    between atoms: _17  and  _18
REMARK    8  A    between atoms: _20  and  _22
REMARK    9  A    between atoms: _22  and  _23
REMARK   10  A    between atoms: _22  and  _25
REMARK   11  A    between atoms: _25  and  _26
REMARK   12  A    between atoms: _32  and  _34
REMARK   13  A    between atoms: _34  and  _35
REMARK   14  A    between atoms: _34  and  _37
REMARK   15  A    between atoms: _37  and  _38
REMARK   16  A    between atoms: _38  and  _39
REMARK   17  A    between atoms: _39  and  _40
REMARK   18  A    between atoms: _49  and  _51
REMARK   19  A    between atoms: _51  and  _52
REMARK   20  A    between atoms: _51  and  _54
REMARK   21  A    between atoms: _54  and  _55
REMARK   22  A    between atoms: _55  and  _56
REMARK   23  A    between atoms: _61  and  _63
REMARK   24  A    between atoms: _63  and  _64
REMARK   25  A    between atoms: _63  and  _66
REMARK   26  A    between atoms: _66  and  _67
REMARK   27  A    between atoms: _70  and  _72
REMARK   28  A    between atoms: _72  and  _73
REMARK   29  A    between atoms: _72  and  _75
REMARK   30  A    between atoms: _75  and  _76
REMARK   31  A    between atoms: _86  and  _88
REMARK   32  A    between atoms: _88  and  _89
REMARK   33  A    between atoms: _88  and  _91
REMARK   34  A    between atoms: _94  and  _96
REMARK   35  A    between atoms: _96  and  _97
REMARK   36  A    between atoms: _96  and  _99
REMARK   37  A    between atoms: _99  and  _100
REMARK   38  A    between atoms: _103  and  _105
REMARK   39  A    between atoms: _105  and  _106
REMARK   40  A    between atoms: _105  and  _108
REMARK   41  A    between atoms: _108  and  _109
REMARK   42  A    between atoms: _111  and  _113
REMARK   43  A    between atoms: _113  and  _114
REMARK   44  A    between atoms: _113  and  _116
REMARK   45  A    between atoms: _116  and  _117
REMARK   46  A    between atoms: _121  and  _122
REMARK   47  A    between atoms: _128  and  _129
REMARK   48  A    between atoms: _135  and  _136
REMARK   49  A    between atoms: _141  and  _143
REMARK   50  A    between atoms: _143  and  _144
REMARK   51  A    between atoms: _146  and  _148
REMARK   52  A    between atoms: _148  and  _149
REMARK   53  A    between atoms: _148  and  _151
REMARK   54  A    between atoms: _151  and  _152
REMARK   55  A    between atoms: _155  and  _157
REMARK   56  A    between atoms: _157  and  _158
REMARK   57  A    between atoms: _157  and  _160
REMARK   58  A    between atoms: _160  and  _161
REMARK   59  A    between atoms: _161  and  _162
REMARK   60  A    between atoms: _162  and  _163
REMARK   61  A    between atoms: _172  and  _174
REMARK   62  A    between atoms: _174  and  _175
REMARK   63  A    between atoms: _174  and  _177
REMARK   64  A    between atoms: _181  and  _182
REMARK   65  A    between atoms: _187  and  _189
REMARK   66  A    between atoms: _189  and  _190
REMARK   67  A    between atoms: _189  and  _192
REMARK   68  A    between atoms: _194  and  _196
REMARK   69  A    between atoms: _196  and  _197
REMARK   70  A    between atoms: _196  and  _199
REMARK   71  A    between atoms: _199  and  _200
REMARK   72  A    between atoms: _200  and  _201
REMARK   73  A    between atoms: _205  and  _206
REMARK   74  A    between atoms: _212  and  _213
REMARK   75  A    between atoms: _218  and  _220
REMARK   76  A    between atoms: _220  and  _221
REMARK   77  A    between atoms: _220  and  _223
REMARK   78  A    between atoms: _223  and  _224
REMARK   79  A    between atoms: _226  and  _228
REMARK   80  A    between atoms: _228  and  _229
REMARK   81  A    between atoms: _228  and  _231
REMARK   82  A    between atoms: _231  and  _232
REMARK   83  A    between atoms: _235  and  _237
REMARK   84  A    between atoms: _237  and  _238
REMARK   85  A    between atoms: _237  and  _240
REMARK   86  A    between atoms: _242  and  _244
REMARK   87  A    between atoms: _244  and  _245
REMARK   88  A    between atoms: _244  and  _247
REMARK   89  A    between atoms: _247  and  _248
REMARK   90  A    between atoms: _251  and  _253
REMARK   91  A    between atoms: _253  and  _254
REMARK   92  A    between atoms: _253  and  _256
REMARK   93  A    between atoms: _256  and  _257
REMARK   94  A    between atoms: _260  and  _262
REMARK   95  A    between atoms: _262  and  _263
REMARK   96  A    between atoms: _262  and  _265
REMARK   97  A    between atoms: _265  and  _266
REMARK                            x       y       z     vdW  Elec       q    Type
REMARK                         _______ _______ _______ _____ _____    ______ ____
ROOT
ATOM      1  O   HOH     1     122.855  96.726 -41.117  0.00  0.00    +0.000 OA
ENDROOT
TORSDOF 0
REMARK  Name = ../refined-set-2016/2vuk/2vuk_pocket.pdb
REMARK  97 active torsions:
REMARK  status: ('A' for Active; 'I' for Inactive)
REMARK    1  A    between atoms: _1  and  _3
REMARK    2  A    between atoms: _3  and  _4
REMARK    3  A    between atoms: _3  and  _6
REMARK    4  A    between atoms: _6  and  _7
REMARK    5  A    between atoms: _12  and  _13
REMARK    6  A    between atoms: _15  and  _17
REMARK    7  A    between atoms: _17  and  _18
REMARK    8  A    between atoms: _20  and  _22
REMARK    9  A    between atoms: _22  and  _23
REMARK   10  A    between atoms: _22  and  _25
REMARK   11  A    between atoms: _25  and  _26
REMARK   12  A    between atoms: _32  and  _34
REMARK   13  A    between atoms: _34  and  _35
REMARK   14  A    between atoms: _34  and  _37
REMARK   15  A    between atoms: _37  and  _38
REMARK   16  A    between atoms: _38  and  _39
REMARK   17  A    between atoms: _39  and  _40
REMARK   18  A    between atoms: _49  and  _51
REMARK   19  A    between atoms: _51  and  _52
REMARK   20  A    between atoms: _51  and  _54
REMARK   21  A    between atoms: _54  and  _55
REMARK   22  A    between atoms: _55  and  _56
REMARK   23  A    between atoms: _61  and  _63
REMARK   24  A    between atoms: _63  and  _64
REMARK   25  A    between atoms: _63  and  _66
REMARK   26  A    between atoms: _66  and  _67
REMARK   27  A    between atoms: _70  and  _72
REMARK   28  A    between atoms: _72  and  _73
REMARK   29  A    between atoms: _72  and  _75
REMARK   30  A    between atoms: _75  and  _76
REMARK   31  A    between atoms: _86  and  _88
REMARK   32  A    between atoms: _88  and  _89
REMARK   33  A    between atoms: _88  and  _91
REMARK   34  A    between atoms: _94  and  _96
REMARK   35  A    between atoms: _96  and  _97
REMARK   36  A    between atoms: _96  and  _99
REMARK   37  A    between atoms: _99  and  _100
REMARK   38  A    between atoms: _103  and  _105
REMARK   39  A    between atoms: _105  and  _106
REMARK   40  A    between atoms: _105  and  _108
REMARK   41  A    between atoms: _108  and  _109
REMARK   42  A    between atoms: _111  and  _113
REMARK   43  A    between atoms: _113  and  _114
REMARK   44  A    between atoms: _113  and  _116
REMARK   45  A    between atoms: _116  and  _117
REMARK   46  A    between atoms: _121  and  _122
REMARK   47  A    between atoms: _128  and  _129
REMARK   48  A    between atoms: _135  and  _136
REMARK   49  A    between atoms: _141  and  _143
REMARK   50  A    between atoms: _143  and  _144
REMARK   51  A    between atoms: _146  and  _148
REMARK   52  A    between atoms: _148  and  _149
REMARK   53  A    between atoms: _148  and  _151
REMARK   54  A    between atoms: _151  and  _152
REMARK   55  A    between atoms: _155  and  _157
REMARK   56  A    between atoms: _157  and  _158
REMARK   57  A    between atoms: _157  and  _160
REMARK   58  A    between atoms: _160  and  _161
REMARK   59  A    between atoms: _161  and  _162
REMARK   60  A    between atoms: _162  and  _163
REMARK   61  A    between atoms: _172  and  _174
REMARK   62  A    between atoms: _174  and  _175
REMARK   63  A    between atoms: _174  and  _177
REMARK   64  A    between atoms: _181  and  _182
REMARK   65  A    between atoms: _187  and  _189
REMARK   66  A    between atoms: _189  and  _190
REMARK   67  A    between atoms: _189  and  _192
REMARK   68  A    between atoms: _194  and  _196
REMARK   69  A    between atoms: _196  and  _197
REMARK   70  A    between atoms: _196  and  _199
REMARK   71  A    between atoms: _199  and  _200
REMARK   72  A    between atoms: _200  and  _201
REMARK   73  A    between atoms: _205  and  _206
REMARK   74  A    between atoms: _212  and  _213
REMARK   75  A    between atoms: _218  and  _220
REMARK   76  A    between atoms: _220  and  _221
REMARK   77  A    between atoms: _220  and  _223
REMARK   78  A    between atoms: _223  and  _224
REMARK   79  A    between atoms: _226  and  _228
REMARK   80  A    between atoms: _228  and  _229
REMARK   81  A    between atoms: _228  and  _231
REMARK   82  A    between atoms: _231  and  _232
REMARK   83  A    between atoms: _235  and  _237
REMARK   84  A    between atoms: _237  and  _238
REMARK   85  A    between atoms: _237  and  _240
REMARK   86  A    between atoms: _242  and  _244
REMARK   87  A    between atoms: _244  and  _245
REMARK   88  A    between atoms: _244  and  _247
REMARK   89  A    between atoms: _247  and  _248
REMARK   90  A    between atoms: _251  and  _253
REMARK   91  A    between atoms: _253  and  _254
REMARK   92  A    between atoms: _253  and  _256
REMARK   93  A    between atoms: _256  and  _257
REMARK   94  A    between atoms: _260  and  _262
REMARK   95  A    between atoms: _262  and  _263
REMARK   96  A    between atoms: _262  and  _265
REMARK   97  A    between atoms: _265  and  _266
REMARK                            x       y       z     vdW  Elec       q    Type
REMARK                         _______ _______ _______ _____ _____    ______ ____
ROOT
ATOM      1  O   HOH     1     118.660  99.856 -40.993  0.00  0.00    +0.000 OA
ENDROOT
TORSDOF 0
REMARK  Name = ../refined-set-2016/2vuk/2vuk_pocket.pdb
REMARK  97 active torsions:
REMARK  status: ('A' for Active; 'I' for Inactive)
REMARK    1  A    between atoms: _1  and  _3
REMARK    2  A    between atoms: _3  and  _4
REMARK    3  A    between atoms: _3  and  _6
REMARK    4  A    between atoms: _6  and  _7
REMARK    5  A    between atoms: _12  and  _13
REMARK    6  A    between atoms: _15  and  _17
REMARK    7  A    between atoms: _17  and  _18
REMARK    8  A    between atoms: _20  and  _22
REMARK    9  A    between atoms: _22  and  _23
REMARK   10  A    between atoms: _22  and  _25
REMARK   11  A    between atoms: _25  and  _26
REMARK   12  A    between atoms: _32  and  _34
REMARK   13  A    between atoms: _34  and  _35
REMARK   14  A    between atoms: _34  and  _37
REMARK   15  A    between atoms: _37  and  _38
REMARK   16  A    between atoms: _38  and  _39
REMARK   17  A    between atoms: _39  and  _40
REMARK   18  A    between atoms: _49  and  _51
REMARK   19  A    between atoms: _51  and  _52
REMARK   20  A    between atoms: _51  and  _54
REMARK   21  A    between atoms: _54  and  _55
REMARK   22  A    between atoms: _55  and  _56
REMARK   23  A    between atoms: _61  and  _63
REMARK   24  A    between atoms: _63  and  _64
REMARK   25  A    between atoms: _63  and  _66
REMARK   26  A    between atoms: _66  and  _67
REMARK   27  A    between atoms: _70  and  _72
REMARK   28  A    between atoms: _72  and  _73
REMARK   29  A    between atoms: _72  and  _75
REMARK   30  A    between atoms: _75  and  _76
REMARK   31  A    between atoms: _86  and  _88
REMARK   32  A    between atoms: _88  and  _89
REMARK   33  A    between atoms: _88  and  _91
REMARK   34  A    between atoms: _94  and  _96
REMARK   35  A    between atoms: _96  and  _97
REMARK   36  A    between atoms: _96  and  _99
REMARK   37  A    between atoms: _99  and  _100
REMARK   38  A    between atoms: _103  and  _105
REMARK   39  A    between atoms: _105  and  _106
REMARK   40  A    between atoms: _105  and  _108
REMARK   41  A    between atoms: _108  and  _109
REMARK   42  A    between atoms: _111  and  _113
REMARK   43  A    between atoms: _113  and  _114
REMARK   44  A    between atoms: _113  and  _116
REMARK   45  A    between atoms: _116  and  _117
REMARK   46  A    between atoms: _121  and  _122
REMARK   47  A    between atoms: _128  and  _129
REMARK   48  A    between atoms: _135  and  _136
REMARK   49  A    between atoms: _141  and  _143
REMARK   50  A    between atoms: _143  and  _144
REMARK   51  A    between atoms: _146  and  _148
REMARK   52  A    between atoms: _148  and  _149
REMARK   53  A    between atoms: _148  and  _151
REMARK   54  A    between atoms: _151  and  _152
REMARK   55  A    between atoms: _155  and  _157
REMARK   56  A    between atoms: _157  and  _158
REMARK   57  A    between atoms: _157  and  _160
REMARK   58  A    between atoms: _160  and  _161
REMARK   59  A    between atoms: _161  and  _162
REMARK   60  A    between atoms: _162  and  _163
REMARK   61  A    between atoms: _172  and  _174
REMARK   62  A    between atoms: _174  and  _175
REMARK   63  A    between atoms: _174  and  _177
REMARK   64  A    between atoms: _181  and  _182
REMARK   65  A    between atoms: _187  and  _189
REMARK   66  A    between atoms: _189  and  _190
REMARK   67  A    between atoms: _189  and  _192
REMARK   68  A    between atoms: _194  and  _196
REMARK   69  A    between atoms: _196  and  _197
REMARK   70  A    between atoms: _196  and  _199
REMARK   71  A    between atoms: _199  and  _200
REMARK   72  A    between atoms: _200  and  _201
REMARK   73  A    between atoms: _205  and  _206
REMARK   74  A    between atoms: _212  and  _213
REMARK   75  A    between atoms: _218  and  _220
REMARK   76  A    between atoms: _220  and  _221
REMARK   77  A    between atoms: _220  and  _223
REMARK   78  A    between atoms: _223  and  _224
REMARK   79  A    between atoms: _226  and  _228
REMARK   80  A    between atoms: _228  and  _229
REMARK   81  A    between atoms: _228  and  _231
REMARK   82  A    between atoms: _231  and  _232
REMARK   83  A    between atoms: _235  and  _237
REMARK   84  A    between atoms: _237  and  _238
REMARK   85  A    between atoms: _237  and  _240
REMARK   86  A    between atoms: _242  and  _244
REMARK   87  A    between atoms: _244  and  _245
REMARK   88  A    between atoms: _244  and  _247
REMARK   89  A    between atoms: _247  and  _248
REMARK   90  A    between atoms: _251  and  _253
REMARK   91  A    between atoms: _253  and  _254
REMARK   92  A    between atoms: _253  and  _256
REMARK   93  A    between atoms: _256  and  _257
REMARK   94  A    between atoms: _260  and  _262
REMARK   95  A    between atoms: _262  and  _263
REMARK   96  A    between atoms: _262  and  _265
REMARK   97  A    between atoms: _265  and  _266
REMARK                            x       y       z     vdW  Elec       q    Type
REMARK                         _______ _______ _______ _____ _____    ______ ____
ROOT
ATOM      1  O   HOH     1     117.431 100.235 -44.775  0.00  0.00    +0.000 OA
ENDROOT
TORSDOF 0
REMARK  Name = ../refined-set-2016/2vuk/2vuk_pocket.pdb
REMARK  97 active torsions:
REMARK  status: ('A' for Active; 'I' for Inactive)
REMARK    1  A    between atoms: _1  and  _3
REMARK    2  A    between atoms: _3  and  _4
REMARK    3  A    between atoms: _3  and  _6
REMARK    4  A    between atoms: _6  and  _7
REMARK    5  A    between atoms: _12  and  _13
REMARK    6  A    between atoms: _15  and  _17
REMARK    7  A    between atoms: _17  and  _18
REMARK    8  A    between atoms: _20  and  _22
REMARK    9  A    between atoms: _22  and  _23
REMARK   10  A    between atoms: _22  and  _25
REMARK   11  A    between atoms: _25  and  _26
REMARK   12  A    between atoms: _32  and  _34
REMARK   13  A    between atoms: _34  and  _35
REMARK   14  A    between atoms: _34  and  _37
REMARK   15  A    between atoms: _37  and  _38
REMARK   16  A    between atoms: _38  and  _39
REMARK   17  A    between atoms: _39  and  _40
REMARK   18  A    between atoms: _49  and  _51
REMARK   19  A    between atoms: _51  and  _52
REMARK   20  A    between atoms: _51  and  _54
REMARK   21  A    between atoms: _54  and  _55
REMARK   22  A    between atoms: _55  and  _56
REMARK   23  A    between atoms: _61  and  _63
REMARK   24  A    between atoms: _63  and  _64
REMARK   25  A    between atoms: _63  and  _66
REMARK   26  A    between atoms: _66  and  _67
REMARK   27  A    between atoms: _70  and  _72
REMARK   28  A    between atoms: _72  and  _73
REMARK   29  A    between atoms: _72  and  _75
REMARK   30  A    between atoms: _75  and  _76
REMARK   31  A    between atoms: _86  and  _88
REMARK   32  A    between atoms: _88  and  _89
REMARK   33  A    between atoms: _88  and  _91
REMARK   34  A    between atoms: _94  and  _96
REMARK   35  A    between atoms: _96  and  _97
REMARK   36  A    between atoms: _96  and  _99
REMARK   37  A    between atoms: _99  and  _100
REMARK   38  A    between atoms: _103  and  _105
REMARK   39  A    between atoms: _105  and  _106
REMARK   40  A    between atoms: _105  and  _108
REMARK   41  A    between atoms: _108  and  _109
REMARK   42  A    between atoms: _111  and  _113
REMARK   43  A    between atoms: _113  and  _114
REMARK   44  A    between atoms: _113  and  _116
REMARK   45  A    between atoms: _116  and  _117
REMARK   46  A    between atoms: _121  and  _122
REMARK   47  A    between atoms: _128  and  _129
REMARK   48  A    between atoms: _135  and  _136
REMARK   49  A    between atoms: _141  and  _143
REMARK   50  A    between atoms: _143  and  _144
REMARK   51  A    between atoms: _146  and  _148
REMARK   52  A    between atoms: _148  and  _149
REMARK   53  A    between atoms: _148  and  _151
REMARK   54  A    between atoms: _151  and  _152
REMARK   55  A    between atoms: _155  and  _157
REMARK   56  A    between atoms: _157  and  _158
REMARK   57  A    between atoms: _157  and  _160
REMARK   58  A    between atoms: _160  and  _161
REMARK   59  A    between atoms: _161  and  _162
REMARK   60  A    between atoms: _162  and  _163
REMARK   61  A    between atoms: _172  and  _174
REMARK   62  A    between atoms: _174  and  _175
REMARK   63  A    between atoms: _174  and  _177
REMARK   64  A    between atoms: _181  and  _182
REMARK   65  A    between atoms: _187  and  _189
REMARK   66  A    between atoms: _189  and  _190
REMARK   67  A    between atoms: _189  and  _192
REMARK   68  A    between atoms: _194  and  _196
REMARK   69  A    between atoms: _196  and  _197
REMARK   70  A    between atoms: _196  and  _199
REMARK   71  A    between atoms: _199  and  _200
REMARK   72  A    between atoms: _200  and  _201
REMARK   73  A    between atoms: _205  and  _206
REMARK   74  A    between atoms: _212  and  _213
REMARK   75  A    between atoms: _218  and  _220
REMARK   76  A    between atoms: _220  and  _221
REMARK   77  A    between atoms: _220  and  _223
REMARK   78  A    between atoms: _223  and  _224
REMARK   79  A    between atoms: _226  and  _228
REMARK   80  A    between atoms: _228  and  _229
REMARK   81  A    between atoms: _228  and  _231
REMARK   82  A    between atoms: _231  and  _232
REMARK   83  A    between atoms: _235  and  _237
REMARK   84  A    between atoms: _237  and  _238
REMARK   85  A    between atoms: _237  and  _240
REMARK   86  A    between atoms: _242  and  _244
REMARK   87  A    between atoms: _244  and  _245
REMARK   88  A    between atoms: _244  and  _247
REMARK   89  A    between atoms: _247  and  _248
REMARK   90  A    between atoms: _251  and  _253
REMARK   91  A    between atoms: _253  and  _254
REMARK   92  A    between atoms: _253  and  _256
REMARK   93  A    between atoms: _256  and  _257
REMARK   94  A    between atoms: _260  and  _262
REMARK   95  A    between atoms: _262  and  _263
REMARK   96  A    between atoms: _262  and  _265
REMARK   97  A    between atoms: _265  and  _266
REMARK                            x       y       z     vdW  Elec       q    Type
REMARK                         _______ _______ _______ _____ _____    ______ ____
ROOT
ATOM      1  O   HOH     1     123.074 113.020 -36.668  0.00  0.00    +0.000 OA
ENDROOT
TORSDOF 0
REMARK  Name = ../refined-set-2016/2vuk/2vuk_pocket.pdb
REMARK  97 active torsions:
REMARK  status: ('A' for Active; 'I' for Inactive)
REMARK    1  A    between atoms: _1  and  _3
REMARK    2  A    between atoms: _3  and  _4
REMARK    3  A    between atoms: _3  and  _6
REMARK    4  A    between atoms: _6  and  _7
REMARK    5  A    between atoms: _12  and  _13
REMARK    6  A    between atoms: _15  and  _17
REMARK    7  A    between atoms: _17  and  _18
REMARK    8  A    between atoms: _20  and  _22
REMARK    9  A    between atoms: _22  and  _23
REMARK   10  A    between atoms: _22  and  _25
REMARK   11  A    between atoms: _25  and  _26
REMARK   12  A    between atoms: _32  and  _34
REMARK   13  A    between atoms: _34  and  _35
REMARK   14  A    between atoms: _34  and  _37
REMARK   15  A    between atoms: _37  and  _38
REMARK   16  A    between atoms: _38  and  _39
REMARK   17  A    between atoms: _39  and  _40
REMARK   18  A    between atoms: _49  and  _51
REMARK   19  A    between atoms: _51  and  _52
REMARK   20  A    between atoms: _51  and  _54
REMARK   21  A    between atoms: _54  and  _55
REMARK   22  A    between atoms: _55  and  _56
REMARK   23  A    between atoms: _61  and  _63
REMARK   24  A    between atoms: _63  and  _64
REMARK   25  A    between atoms: _63  and  _66
REMARK   26  A    between atoms: _66  and  _67
REMARK   27  A    between atoms: _70  and  _72
REMARK   28  A    between atoms: _72  and  _73
REMARK   29  A    between atoms: _72  and  _75
REMARK   30  A    between atoms: _75  and  _76
REMARK   31  A    between atoms: _86  and  _88
REMARK   32  A    between atoms: _88  and  _89
REMARK   33  A    between atoms: _88  and  _91
REMARK   34  A    between atoms: _94  and  _96
REMARK   35  A    between atoms: _96  and  _97
REMARK   36  A    between atoms: _96  and  _99
REMARK   37  A    between atoms: _99  and  _100
REMARK   38  A    between atoms: _103  and  _105
REMARK   39  A    between atoms: _105  and  _106
REMARK   40  A    between atoms: _105  and  _108
REMARK   41  A    between atoms: _108  and  _109
REMARK   42  A    between atoms: _111  and  _113
REMARK   43  A    between atoms: _113  and  _114
REMARK   44  A    between atoms: _113  and  _116
REMARK   45  A    between atoms: _116  and  _117
REMARK   46  A    between atoms: _121  and  _122
REMARK   47  A    between atoms: _128  and  _129
REMARK   48  A    between atoms: _135  and  _136
REMARK   49  A    between atoms: _141  and  _143
REMARK   50  A    between atoms: _143  and  _144
REMARK   51  A    between atoms: _146  and  _148
REMARK   52  A    between atoms: _148  and  _149
REMARK   53  A    between atoms: _148  and  _151
REMARK   54  A    between atoms: _151  and  _152
REMARK   55  A    between atoms: _155  and  _157
REMARK   56  A    between atoms: _157  and  _158
REMARK   57  A    between atoms: _157  and  _160
REMARK   58  A    between atoms: _160  and  _161
REMARK   59  A    between atoms: _161  and  _162
REMARK   60  A    between atoms: _162  and  _163
REMARK   61  A    between atoms: _172  and  _174
REMARK   62  A    between atoms: _174  and  _175
REMARK   63  A    between atoms: _174  and  _177
REMARK   64  A    between atoms: _181  and  _182
REMARK   65  A    between atoms: _187  and  _189
REMARK   66  A    between atoms: _189  and  _190
REMARK   67  A    between atoms: _189  and  _192
REMARK   68  A    between atoms: _194  and  _196
REMARK   69  A    between atoms: _196  and  _197
REMARK   70  A    between atoms: _196  and  _199
REMARK   71  A    between atoms: _199  and  _200
REMARK   72  A    between atoms: _200  and  _201
REMARK   73  A    between atoms: _205  and  _206
REMARK   74  A    between atoms: _212  and  _213
REMARK   75  A    between atoms: _218  and  _220
REMARK   76  A    between atoms: _220  and  _221
REMARK   77  A    between atoms: _220  and  _223
REMARK   78  A    between atoms: _223  and  _224
REMARK   79  A    between atoms: _226  and  _228
REMARK   80  A    between atoms: _228  and  _229
REMARK   81  A    between atoms: _228  and  _231
REMARK   82  A    between atoms: _231  and  _232
REMARK   83  A    between atoms: _235  and  _237
REMARK   84  A    between atoms: _237  and  _238
REMARK   85  A    between atoms: _237  and  _240
REMARK   86  A    between atoms: _242  and  _244
REMARK   87  A    between atoms: _244  and  _245
REMARK   88  A    between atoms: _244  and  _247
REMARK   89  A    between atoms: _247  and  _248
REMARK   90  A    between atoms: _251  and  _253
REMARK   91  A    between atoms: _253  and  _254
REMARK   92  A    between atoms: _253  and  _256
REMARK   93  A    between atoms: _256  and  _257
REMARK   94  A    between atoms: _260  and  _262
REMARK   95  A    between atoms: _262  and  _263
REMARK   96  A    between atoms: _262  and  _265
REMARK   97  A    between atoms: _265  and  _266
REMARK                            x       y       z     vdW  Elec       q    Type
REMARK                         _______ _______ _______ _____ _____    ______ ____
ROOT
ATOM      1  O   HOH     1     119.514 108.279 -35.029  0.00  0.00    +0.000 OA
ENDROOT
TORSDOF 0
REMARK  Name = ../refined-set-2016/2vuk/2vuk_pocket.pdb
REMARK  97 active torsions:
REMARK  status: ('A' for Active; 'I' for Inactive)
REMARK    1  A    between atoms: _1  and  _3
REMARK    2  A    between atoms: _3  and  _4
REMARK    3  A    between atoms: _3  and  _6
REMARK    4  A    between atoms: _6  and  _7
REMARK    5  A    between atoms: _12  and  _13
REMARK    6  A    between atoms: _15  and  _17
REMARK    7  A    between atoms: _17  and  _18
REMARK    8  A    between atoms: _20  and  _22
REMARK    9  A    between atoms: _22  and  _23
REMARK   10  A    between atoms: _22  and  _25
REMARK   11  A    between atoms: _25  and  _26
REMARK   12  A    between atoms: _32  and  _34
REMARK   13  A    between atoms: _34  and  _35
REMARK   14  A    between atoms: _34  and  _37
REMARK   15  A    between atoms: _37  and  _38
REMARK   16  A    between atoms: _38  and  _39
REMARK   17  A    between atoms: _39  and  _40
REMARK   18  A    between atoms: _49  and  _51
REMARK   19  A    between atoms: _51  and  _52
REMARK   20  A    between atoms: _51  and  _54
REMARK   21  A    between atoms: _54  and  _55
REMARK   22  A    between atoms: _55  and  _56
REMARK   23  A    between atoms: _61  and  _63
REMARK   24  A    between atoms: _63  and  _64
REMARK   25  A    between atoms: _63  and  _66
REMARK   26  A    between atoms: _66  and  _67
REMARK   27  A    between atoms: _70  and  _72
REMARK   28  A    between atoms: _72  and  _73
REMARK   29  A    between atoms: _72  and  _75
REMARK   30  A    between atoms: _75  and  _76
REMARK   31  A    between atoms: _86  and  _88
REMARK   32  A    between atoms: _88  and  _89
REMARK   33  A    between atoms: _88  and  _91
REMARK   34  A    between atoms: _94  and  _96
REMARK   35  A    between atoms: _96  and  _97
REMARK   36  A    between atoms: _96  and  _99
REMARK   37  A    between atoms: _99  and  _100
REMARK   38  A    between atoms: _103  and  _105
REMARK   39  A    between atoms: _105  and  _106
REMARK   40  A    between atoms: _105  and  _108
REMARK   41  A    between atoms: _108  and  _109
REMARK   42  A    between atoms: _111  and  _113
REMARK   43  A    between atoms: _113  and  _114
REMARK   44  A    between atoms: _113  and  _116
REMARK   45  A    between atoms: _116  and  _117
REMARK   46  A    between atoms: _121  and  _122
REMARK   47  A    between atoms: _128  and  _129
REMARK   48  A    between atoms: _135  and  _136
REMARK   49  A    between atoms: _141  and  _143
REMARK   50  A    between atoms: _143  and  _144
REMARK   51  A    between atoms: _146  and  _148
REMARK   52  A    between atoms: _148  and  _149
REMARK   53  A    between atoms: _148  and  _151
REMARK   54  A    between atoms: _151  and  _152
REMARK   55  A    between atoms: _155  and  _157
REMARK   56  A    between atoms: _157  and  _158
REMARK   57  A    between atoms: _157  and  _160
REMARK   58  A    between atoms: _160  and  _161
REMARK   59  A    between atoms: _161  and  _162
REMARK   60  A    between atoms: _162  and  _163
REMARK   61  A    between atoms: _172  and  _174
REMARK   62  A    between atoms: _174  and  _175
REMARK   63  A    between atoms: _174  and  _177
REMARK   64  A    between atoms: _181  and  _182
REMARK   65  A    between atoms: _187  and  _189
REMARK   66  A    between atoms: _189  and  _190
REMARK   67  A    between atoms: _189  and  _192
REMARK   68  A    between atoms: _194  and  _196
REMARK   69  A    between atoms: _196  and  _197
REMARK   70  A    between atoms: _196  and  _199
REMARK   71  A    between atoms: _199  and  _200
REMARK   72  A    between atoms: _200  and  _201
REMARK   73  A    between atoms: _205  and  _206
REMARK   74  A    between atoms: _212  and  _213
REMARK   75  A    between atoms: _218  and  _220
REMARK   76  A    between atoms: _220  and  _221
REMARK   77  A    between atoms: _220  and  _223
REMARK   78  A    between atoms: _223  and  _224
REMARK   79  A    between atoms: _226  and  _228
REMARK   80  A    between atoms: _228  and  _229
REMARK   81  A    between atoms: _228  and  _231
REMARK   82  A    between atoms: _231  and  _232
REMARK   83  A    between atoms: _235  and  _237
REMARK   84  A    between atoms: _237  and  _238
REMARK   85  A    between atoms: _237  and  _240
REMARK   86  A    between atoms: _242  and  _244
REMARK   87  A    between atoms: _244  and  _245
REMARK   88  A    between atoms: _244  and  _247
REMARK   89  A    between atoms: _247  and  _248
REMARK   90  A    between atoms: _251  and  _253
REMARK   91  A    between atoms: _253  and  _254
REMARK   92  A    between atoms: _253  and  _256
REMARK   93  A    between atoms: _256  and  _257
REMARK   94  A    between atoms: _260  and  _262
REMARK   95  A    between atoms: _262  and  _263
REMARK   96  A    between atoms: _262  and  _265
REMARK   97  A    between atoms: _265  and  _266
REMARK                            x       y       z     vdW  Elec       q    Type
REMARK                         _______ _______ _______ _____ _____    ______ ____
ROOT
ATOM      1  O   HOH     1     119.711 114.555 -39.274  0.00  0.00    +0.000 OA
ENDROOT
TORSDOF 0
REMARK  Name = ../refined-set-2016/2vuk/2vuk_pocket.pdb
REMARK  97 active torsions:
REMARK  status: ('A' for Active; 'I' for Inactive)
REMARK    1  A    between atoms: _1  and  _3
REMARK    2  A    between atoms: _3  and  _4
REMARK    3  A    between atoms: _3  and  _6
REMARK    4  A    between atoms: _6  and  _7
REMARK    5  A    between atoms: _12  and  _13
REMARK    6  A    between atoms: _15  and  _17
REMARK    7  A    between atoms: _17  and  _18
REMARK    8  A    between atoms: _20  and  _22
REMARK    9  A    between atoms: _22  and  _23
REMARK   10  A    between atoms: _22  and  _25
REMARK   11  A    between atoms: _25  and  _26
REMARK   12  A    between atoms: _32  and  _34
REMARK   13  A    between atoms: _34  and  _35
REMARK   14  A    between atoms: _34  and  _37
REMARK   15  A    between atoms: _37  and  _38
REMARK   16  A    between atoms: _38  and  _39
REMARK   17  A    between atoms: _39  and  _40
REMARK   18  A    between atoms: _49  and  _51
REMARK   19  A    between atoms: _51  and  _52
REMARK   20  A    between atoms: _51  and  _54
REMARK   21  A    between atoms: _54  and  _55
REMARK   22  A    between atoms: _55  and  _56
REMARK   23  A    between atoms: _61  and  _63
REMARK   24  A    between atoms: _63  and  _64
REMARK   25  A    between atoms: _63  and  _66
REMARK   26  A    between atoms: _66  and  _67
REMARK   27  A    between atoms: _70  and  _72
REMARK   28  A    between atoms: _72  and  _73
REMARK   29  A    between atoms: _72  and  _75
REMARK   30  A    between atoms: _75  and  _76
REMARK   31  A    between atoms: _86  and  _88
REMARK   32  A    between atoms: _88  and  _89
REMARK   33  A    between atoms: _88  and  _91
REMARK   34  A    between atoms: _94  and  _96
REMARK   35  A    between atoms: _96  and  _97
REMARK   36  A    between atoms: _96  and  _99
REMARK   37  A    between atoms: _99  and  _100
REMARK   38  A    between atoms: _103  and  _105
REMARK   39  A    between atoms: _105  and  _106
REMARK   40  A    between atoms: _105  and  _108
REMARK   41  A    between atoms: _108  and  _109
REMARK   42  A    between atoms: _111  and  _113
REMARK   43  A    between atoms: _113  and  _114
REMARK   44  A    between atoms: _113  and  _116
REMARK   45  A    between atoms: _116  and  _117
REMARK   46  A    between atoms: _121  and  _122
REMARK   47  A    between atoms: _128  and  _129
REMARK   48  A    between atoms: _135  and  _136
REMARK   49  A    between atoms: _141  and  _143
REMARK   50  A    between atoms: _143  and  _144
REMARK   51  A    between atoms: _146  and  _148
REMARK   52  A    between atoms: _148  and  _149
REMARK   53  A    between atoms: _148  and  _151
REMARK   54  A    between atoms: _151  and  _152
REMARK   55  A    between atoms: _155  and  _157
REMARK   56  A    between atoms: _157  and  _158
REMARK   57  A    between atoms: _157  and  _160
REMARK   58  A    between atoms: _160  and  _161
REMARK   59  A    between atoms: _161  and  _162
REMARK   60  A    between atoms: _162  and  _163
REMARK   61  A    between atoms: _172  and  _174
REMARK   62  A    between atoms: _174  and  _175
REMARK   63  A    between atoms: _174  and  _177
REMARK   64  A    between atoms: _181  and  _182
REMARK   65  A    between atoms: _187  and  _189
REMARK   66  A    between atoms: _189  and  _190
REMARK   67  A    between atoms: _189  and  _192
REMARK   68  A    between atoms: _194  and  _196
REMARK   69  A    between atoms: _196  and  _197
REMARK   70  A    between atoms: _196  and  _199
REMARK   71  A    between atoms: _199  and  _200
REMARK   72  A    between atoms: _200  and  _201
REMARK   73  A    between atoms: _205  and  _206
REMARK   74  A    between atoms: _212  and  _213
REMARK   75  A    between atoms: _218  and  _220
REMARK   76  A    between atoms: _220  and  _221
REMARK   77  A    between atoms: _220  and  _223
REMARK   78  A    between atoms: _223  and  _224
REMARK   79  A    between atoms: _226  and  _228
REMARK   80  A    between atoms: _228  and  _229
REMARK   81  A    between atoms: _228  and  _231
REMARK   82  A    between atoms: _231  and  _232
REMARK   83  A    between atoms: _235  and  _237
REMARK   84  A    between atoms: _237  and  _238
REMARK   85  A    between atoms: _237  and  _240
REMARK   86  A    between atoms: _242  and  _244
REMARK   87  A    between atoms: _244  and  _245
REMARK   88  A    between atoms: _244  and  _247
REMARK   89  A    between atoms: _247  and  _248
REMARK   90  A    between atoms: _251  and  _253
REMARK   91  A    between atoms: _253  and  _254
REMARK   92  A    between atoms: _253  and  _256
REMARK   93  A    between atoms: _256  and  _257
REMARK   94  A    between atoms: _260  and  _262
REMARK   95  A    between atoms: _262  and  _263
REMARK   96  A    between atoms: _262  and  _265
REMARK   97  A    between atoms: _265  and  _266
REMARK                            x       y       z     vdW  Elec       q    Type
REMARK                         _______ _______ _______ _____ _____    ______ ____
ROOT
ATOM      1  O   HOH     1     118.810 100.378 -38.012  0.00  0.00    +0.000 OA
ENDROOT
TORSDOF 0
