REMARK  Name = ../refined-set-2016/3guz/3guz_pocket.pdb
REMARK  129 active torsions:
REMARK  status: ('A' for Active; 'I' for Inactive)
REMARK    1  A    between atoms: _1  and  _3
REMARK    2  A    between atoms: _3  and  _4
REMARK    3  A    between atoms: _3  and  _6
REMARK    4  A    between atoms: _10  and  _11
REMARK    5  A    between atoms: _16  and  _18
REMARK    6  A    between atoms: _18  and  _19
REMARK    7  A    between atoms: _18  and  _21
REMARK    8  A    between atoms: _21  and  _22
REMARK    9  A    between atoms: _25  and  _27
REMARK   10  A    between atoms: _27  and  _28
REMARK   11  A    between atoms: _27  and  _30
REMARK   12  A    between atoms: _30  and  _31
REMARK   13  A    between atoms: _31  and  _32
REMARK   14  A    between atoms: _34  and  _36
REMARK   15  A    between atoms: _36  and  _37
REMARK   16  A    between atoms: _39  and  _41
REMARK   17  A    between atoms: _41  and  _42
REMARK   18  A    between atoms: _41  and  _44
REMARK   19  A    between atoms: _44  and  _45
REMARK   20  A    between atoms: _48  and  _50
REMARK   21  A    between atoms: _50  and  _51
REMARK   22  A    between atoms: _50  and  _53
REMARK   23  A    between atoms: _53  and  _54
REMARK   24  A    between atoms: _59  and  _61
REMARK   25  A    between atoms: _61  and  _62
REMARK   26  A    between atoms: _61  and  _64
REMARK   27  A    between atoms: _64  and  _65
REMARK   28  A    between atoms: _68  and  _70
REMARK   29  A    between atoms: _70  and  _71
REMARK   30  A    between atoms: _70  and  _73
REMARK   31  A    between atoms: _73  and  _74
REMARK   32  A    between atoms: _76  and  _78
REMARK   33  A    between atoms: _78  and  _79
REMARK   34  A    between atoms: _78  and  _81
REMARK   35  A    between atoms: _81  and  _82
REMARK   36  A    between atoms: _85  and  _87
REMARK   37  A    between atoms: _87  and  _88
REMARK   38  A    between atoms: _87  and  _90
REMARK   39  A    between atoms: _90  and  _91
REMARK   40  A    between atoms: _97  and  _99
REMARK   41  A    between atoms: _99  and  _100
REMARK   42  A    between atoms: _99  and  _102
REMARK   43  A    between atoms: _105  and  _107
REMARK   44  A    between atoms: _107  and  _108
REMARK   45  A    between atoms: _107  and  _110
REMARK   46  A    between atoms: _110  and  _111
REMARK   47  A    between atoms: _117  and  _118
REMARK   48  A    between atoms: _123  and  _125
REMARK   49  A    between atoms: _125  and  _126
REMARK   50  A    between atoms: _125  and  _128
REMARK   51  A    between atoms: _128  and  _129
REMARK   52  A    between atoms: _129  and  _130
REMARK   53  A    between atoms: _132  and  _134
REMARK   54  A    between atoms: _134  and  _135
REMARK   55  A    between atoms: _134  and  _137
REMARK   56  A    between atoms: _137  and  _138
REMARK   57  A    between atoms: _138  and  _139
REMARK   58  A    between atoms: _144  and  _146
REMARK   59  A    between atoms: _146  and  _147
REMARK   60  A    between atoms: _146  and  _149
REMARK   61  A    between atoms: _149  and  _150
REMARK   62  A    between atoms: _156  and  _158
REMARK   63  A    between atoms: _158  and  _159
REMARK   64  A    between atoms: _158  and  _161
REMARK   65  A    between atoms: _161  and  _162
REMARK   66  A    between atoms: _167  and  _168
REMARK   67  A    between atoms: _170  and  _172
REMARK   68  A    between atoms: _172  and  _173
REMARK   69  A    between atoms: _172  and  _175
REMARK   70  A    between atoms: _175  and  _176
REMARK   71  A    between atoms: _181  and  _182
REMARK   72  A    between atoms: _184  and  _186
REMARK   73  A    between atoms: _186  and  _187
REMARK   74  A    between atoms: _186  and  _189
REMARK   75  A    between atoms: _189  and  _190
REMARK   76  A    between atoms: _195  and  _197
REMARK   77  A    between atoms: _197  and  _198
REMARK   78  A    between atoms: _197  and  _200
REMARK   79  A    between atoms: _200  and  _201
REMARK   80  A    between atoms: _207  and  _209
REMARK   81  A    between atoms: _209  and  _210
REMARK   82  A    between atoms: _212  and  _214
REMARK   83  A    between atoms: _214  and  _215
REMARK   84  A    between atoms: _214  and  _217
REMARK   85  A    between atoms: _220  and  _222
REMARK   86  A    between atoms: _222  and  _223
REMARK   87  A    between atoms: _222  and  _225
REMARK   88  A    between atoms: _225  and  _226
REMARK   89  A    between atoms: _228  and  _230
REMARK   90  A    between atoms: _230  and  _231
REMARK   91  A    between atoms: _230  and  _233
REMARK   92  A    between atoms: _233  and  _234
REMARK   93  A    between atoms: _237  and  _239
REMARK   94  A    between atoms: _239  and  _240
REMARK   95  A    between atoms: _239  and  _242
REMARK   96  A    between atoms: _242  and  _243
REMARK   97  A    between atoms: _246  and  _248
REMARK   98  A    between atoms: _248  and  _249
REMARK   99  A    between atoms: _248  and  _251
REMARK  100  A    between atoms: _254  and  _256
REMARK  101  A    between atoms: _256  and  _257
REMARK  102  A    between atoms: _256  and  _259
REMARK  103  A    between atoms: _259  and  _260
REMARK  104  A    between atoms: _262  and  _264
REMARK  105  A    between atoms: _264  and  _265
REMARK  106  A    between atoms: _264  and  _267
REMARK  107  A    between atoms: _267  and  _268
REMARK  108  A    between atoms: _271  and  _273
REMARK  109  A    between atoms: _273  and  _274
REMARK  110  A    between atoms: _273  and  _276
REMARK  111  A    between atoms: _278  and  _280
REMARK  112  A    between atoms: _280  and  _281
REMARK  113  A    between atoms: _280  and  _283
REMARK  114  A    between atoms: _283  and  _284
REMARK  115  A    between atoms: _290  and  _292
REMARK  116  A    between atoms: _292  and  _293
REMARK  117  A    between atoms: _295  and  _297
REMARK  118  A    between atoms: _297  and  _298
REMARK  119  A    between atoms: _297  and  _300
REMARK  120  A    between atoms: _300  and  _301
REMARK  121  A    between atoms: _304  and  _306
REMARK  122  A    between atoms: _306  and  _307
REMARK  123  A    between atoms: _306  and  _309
REMARK  124  A    between atoms: _309  and  _310
REMARK  125  A    between atoms: _310  and  _311
REMARK  126  A    between atoms: _316  and  _318
REMARK  127  A    between atoms: _318  and  _319
REMARK  128  A    between atoms: _318  and  _321
REMARK  129  A    between atoms: _321  and  _322
REMARK                            x       y       z     vdW  Elec       q    Type
REMARK                         _______ _______ _______ _____ _____    ______ ____
ROOT
ATOM      1  CA  THR A   3      10.985 -16.991   0.326  0.00  0.00    +0.176 C 
ENDROOT
BRANCH   1   3
ATOM      2  C   PRO A   2       9.454 -17.545  -1.481  0.00  0.00    +0.241 C 
ATOM      3  N   THR A   3      10.646 -17.728  -0.889  0.00  0.00    -0.295 N 
ATOM      4  H   THR A   3      11.330 -18.397  -1.297  0.00  0.00    +0.150 HD
ATOM      5  O   PRO A   2       8.618 -16.772  -1.048  0.00  0.00    -0.273 OA
BRANCH   2   9
ATOM      6  C   VAL A   1       7.724 -20.041  -2.162  0.00  0.00    +0.241 C 
ATOM      7  O   VAL A   1       8.649 -20.565  -1.532  0.00  0.00    -0.273 OA
ATOM      8  N   PRO A   2       7.909 -18.939  -2.881  0.00  0.00    -0.272 N 
ATOM      9  CA  PRO A   2       9.194 -18.298  -2.796  0.00  0.00    +0.152 C 
ATOM     10  CB  PRO A   2       9.157 -17.288  -3.950  0.00  0.00    +0.031 C 
ATOM     11  CG  PRO A   2       8.193 -17.927  -4.971  0.00  0.00    +0.024 C 
ATOM     12  CD  PRO A   2       7.087 -18.341  -3.960  0.00  0.00    +0.094 C 
BRANCH   6  13
ATOM     13  CA  VAL A   1       6.305 -20.631  -2.094  0.00  0.00    +0.145 C 
BRANCH  13  14
ATOM     14  CB  VAL A   1       5.959 -21.077  -0.650  0.00  0.00    +0.025 C 
ATOM     15  CG2 VAL A   1       5.974 -19.884   0.311  0.00  0.00    +0.002 C 
ATOM     16  CG1 VAL A   1       4.590 -21.703  -0.687  0.00  0.00    +0.002 C 
ENDBRANCH  13  14
BRANCH  13  17
ATOM     17  N   VAL A   1       6.345 -21.791  -2.988  0.00  0.00    -0.238 NA
ATOM     18  H   VAL A   1       6.977 -22.584  -2.759  0.00  0.00    +0.142 HD
ENDBRANCH  13  17
ENDBRANCH   6  13
ENDBRANCH   2   9
ENDBRANCH   1   3
BRANCH   1  19
ATOM     19  C   THR A   3      12.473 -16.624   0.303  0.00  0.00    +0.243 C 
ATOM     20  N   MET A   4      12.846 -15.699   1.167  0.00  0.00    -0.297 N 
ATOM     21  H   MET A   4      12.130 -15.154   1.689  0.00  0.00    +0.150 HD
ATOM     22  O   THR A   3      13.277 -17.207  -0.453  0.00  0.00    -0.273 OA
BRANCH  20  23
ATOM     23  CA  MET A   4      14.289 -15.438   1.392  0.00  0.00    +0.149 C 
BRANCH  23  24
ATOM     24  C   MET A   4      14.736 -15.978   2.758  0.00  0.00    +0.241 C 
ATOM     25  O   MET A   4      15.695 -15.486   3.351  0.00  0.00    -0.273 OA
ATOM     26  N   GLY A   5      14.084 -17.050   3.227  0.00  0.00    -0.296 N 
ATOM     27  H   GLY A   5      13.310 -17.463   2.668  0.00  0.00    +0.150 HD
BRANCH  26  28
ATOM     28  CA  GLY A   5      14.433 -17.633   4.478  0.00  0.00    +0.163 C 
BRANCH  28  29
ATOM     29  C   GLY A   5      14.108 -16.743   5.685  0.00  0.00    +0.229 C 
ATOM     30  O   GLY A   5      13.295 -15.816   5.581  0.00  0.00    -0.286 OA
ENDBRANCH  28  29
ENDBRANCH  26  28
ENDBRANCH  23  24
BRANCH  23  31
ATOM     31  CB  MET A   4      14.557 -13.914   1.274  0.00  0.00    +0.041 C 
BRANCH  31  32
ATOM     32  CG  MET A   4      14.195 -13.431  -0.156  0.00  0.00    +0.060 C 
BRANCH  32  33
ATOM     33  SD  MET A   4      15.031 -11.913  -0.578  0.00  0.00    -0.139 S 
ATOM     34  CE  MET A   4      14.506 -10.781   0.663  0.00  0.00    +0.069 C 
ENDBRANCH  32  33
ENDBRANCH  31  32
ENDBRANCH  23  31
ENDBRANCH  20  23
ENDBRANCH   1  19
BRANCH   1  35
ATOM     35  CB  THR A   3      10.778 -17.824   1.655  0.00  0.00    +0.137 C 
ATOM     36  CG2 THR A   3       9.500 -18.635   1.617  0.00  0.00    +0.034 C 
BRANCH  35  37
ATOM     37  OG1 THR A   3      11.866 -18.728   1.832  0.00  0.00    -0.382 OA
ATOM     38  HG1 THR A   3      11.908 -19.347   1.060  0.00  0.00    +0.210 HD
ENDBRANCH  35  37
ENDBRANCH   1  35
TORSDOF 15
REMARK  Name = ../refined-set-2016/3guz/3guz_pocket.pdb
REMARK  129 active torsions:
REMARK  status: ('A' for Active; 'I' for Inactive)
REMARK    1  A    between atoms: _1  and  _3
REMARK    2  A    between atoms: _3  and  _4
REMARK    3  A    between atoms: _3  and  _6
REMARK    4  A    between atoms: _10  and  _11
REMARK    5  A    between atoms: _16  and  _18
REMARK    6  A    between atoms: _18  and  _19
REMARK    7  A    between atoms: _18  and  _21
REMARK    8  A    between atoms: _21  and  _22
REMARK    9  A    between atoms: _25  and  _27
REMARK   10  A    between atoms: _27  and  _28
REMARK   11  A    between atoms: _27  and  _30
REMARK   12  A    between atoms: _30  and  _31
REMARK   13  A    between atoms: _31  and  _32
REMARK   14  A    between atoms: _34  and  _36
REMARK   15  A    between atoms: _36  and  _37
REMARK   16  A    between atoms: _39  and  _41
REMARK   17  A    between atoms: _41  and  _42
REMARK   18  A    between atoms: _41  and  _44
REMARK   19  A    between atoms: _44  and  _45
REMARK   20  A    between atoms: _48  and  _50
REMARK   21  A    between atoms: _50  and  _51
REMARK   22  A    between atoms: _50  and  _53
REMARK   23  A    between atoms: _53  and  _54
REMARK   24  A    between atoms: _59  and  _61
REMARK   25  A    between atoms: _61  and  _62
REMARK   26  A    between atoms: _61  and  _64
REMARK   27  A    between atoms: _64  and  _65
REMARK   28  A    between atoms: _68  and  _70
REMARK   29  A    between atoms: _70  and  _71
REMARK   30  A    between atoms: _70  and  _73
REMARK   31  A    between atoms: _73  and  _74
REMARK   32  A    between atoms: _76  and  _78
REMARK   33  A    between atoms: _78  and  _79
REMARK   34  A    between atoms: _78  and  _81
REMARK   35  A    between atoms: _81  and  _82
REMARK   36  A    between atoms: _85  and  _87
REMARK   37  A    between atoms: _87  and  _88
REMARK   38  A    between atoms: _87  and  _90
REMARK   39  A    between atoms: _90  and  _91
REMARK   40  A    between atoms: _97  and  _99
REMARK   41  A    between atoms: _99  and  _100
REMARK   42  A    between atoms: _99  and  _102
REMARK   43  A    between atoms: _105  and  _107
REMARK   44  A    between atoms: _107  and  _108
REMARK   45  A    between atoms: _107  and  _110
REMARK   46  A    between atoms: _110  and  _111
REMARK   47  A    between atoms: _117  and  _118
REMARK   48  A    between atoms: _123  and  _125
REMARK   49  A    between atoms: _125  and  _126
REMARK   50  A    between atoms: _125  and  _128
REMARK   51  A    between atoms: _128  and  _129
REMARK   52  A    between atoms: _129  and  _130
REMARK   53  A    between atoms: _132  and  _134
REMARK   54  A    between atoms: _134  and  _135
REMARK   55  A    between atoms: _134  and  _137
REMARK   56  A    between atoms: _137  and  _138
REMARK   57  A    between atoms: _138  and  _139
REMARK   58  A    between atoms: _144  and  _146
REMARK   59  A    between atoms: _146  and  _147
REMARK   60  A    between atoms: _146  and  _149
REMARK   61  A    between atoms: _149  and  _150
REMARK   62  A    between atoms: _156  and  _158
REMARK   63  A    between atoms: _158  and  _159
REMARK   64  A    between atoms: _158  and  _161
REMARK   65  A    between atoms: _161  and  _162
REMARK   66  A    between atoms: _167  and  _168
REMARK   67  A    between atoms: _170  and  _172
REMARK   68  A    between atoms: _172  and  _173
REMARK   69  A    between atoms: _172  and  _175
REMARK   70  A    between atoms: _175  and  _176
REMARK   71  A    between atoms: _181  and  _182
REMARK   72  A    between atoms: _184  and  _186
REMARK   73  A    between atoms: _186  and  _187
REMARK   74  A    between atoms: _186  and  _189
REMARK   75  A    between atoms: _189  and  _190
REMARK   76  A    between atoms: _195  and  _197
REMARK   77  A    between atoms: _197  and  _198
REMARK   78  A    between atoms: _197  and  _200
REMARK   79  A    between atoms: _200  and  _201
REMARK   80  A    between atoms: _207  and  _209
REMARK   81  A    between atoms: _209  and  _210
REMARK   82  A    between atoms: _212  and  _214
REMARK   83  A    between atoms: _214  and  _215
REMARK   84  A    between atoms: _214  and  _217
REMARK   85  A    between atoms: _220  and  _222
REMARK   86  A    between atoms: _222  and  _223
REMARK   87  A    between atoms: _222  and  _225
REMARK   88  A    between atoms: _225  and  _226
REMARK   89  A    between atoms: _228  and  _230
REMARK   90  A    between atoms: _230  and  _231
REMARK   91  A    between atoms: _230  and  _233
REMARK   92  A    between atoms: _233  and  _234
REMARK   93  A    between atoms: _237  and  _239
REMARK   94  A    between atoms: _239  and  _240
REMARK   95  A    between atoms: _239  and  _242
REMARK   96  A    between atoms: _242  and  _243
REMARK   97  A    between atoms: _246  and  _248
REMARK   98  A    between atoms: _248  and  _249
REMARK   99  A    between atoms: _248  and  _251
REMARK  100  A    between atoms: _254  and  _256
REMARK  101  A    between atoms: _256  and  _257
REMARK  102  A    between atoms: _256  and  _259
REMARK  103  A    between atoms: _259  and  _260
REMARK  104  A    between atoms: _262  and  _264
REMARK  105  A    between atoms: _264  and  _265
REMARK  106  A    between atoms: _264  and  _267
REMARK  107  A    between atoms: _267  and  _268
REMARK  108  A    between atoms: _271  and  _273
REMARK  109  A    between atoms: _273  and  _274
REMARK  110  A    between atoms: _273  and  _276
REMARK  111  A    between atoms: _278  and  _280
REMARK  112  A    between atoms: _280  and  _281
REMARK  113  A    between atoms: _280  and  _283
REMARK  114  A    between atoms: _283  and  _284
REMARK  115  A    between atoms: _290  and  _292
REMARK  116  A    between atoms: _292  and  _293
REMARK  117  A    between atoms: _295  and  _297
REMARK  118  A    between atoms: _297  and  _298
REMARK  119  A    between atoms: _297  and  _300
REMARK  120  A    between atoms: _300  and  _301
REMARK  121  A    between atoms: _304  and  _306
REMARK  122  A    between atoms: _306  and  _307
REMARK  123  A    between atoms: _306  and  _309
REMARK  124  A    between atoms: _309  and  _310
REMARK  125  A    between atoms: _310  and  _311
REMARK  126  A    between atoms: _316  and  _318
REMARK  127  A    between atoms: _318  and  _319
REMARK  128  A    between atoms: _318  and  _321
REMARK  129  A    between atoms: _321  and  _322
REMARK                            x       y       z     vdW  Elec       q    Type
REMARK                         _______ _______ _______ _____ _____    ______ ____
ROOT
ATOM      1  CA  LEU A   1      10.929 -17.870   8.286  0.00  0.00    +0.133 C 
ENDROOT
BRANCH   1   2
ATOM      2  N   LEU A   1      12.363 -17.624   8.276  0.00  0.00    -0.239 NA
ATOM      3  H   LEU A   1      13.013 -18.435   8.244  0.00  0.00    +0.142 HD
ENDBRANCH   1   2
BRANCH   1   4
ATOM      4  C   LEU A   1      10.317 -17.730   9.633  0.00  0.00    +0.224 C 
ATOM      5  O   LEU A   1      10.889 -18.215  10.615  0.00  0.00    -0.287 OA
ENDBRANCH   1   4
BRANCH   1   6
ATOM      6  CB  LEU A   1      10.657 -19.283   7.779  0.00  0.00    +0.025 C 
BRANCH   6   7
ATOM      7  CG  LEU A   1      11.137 -19.430   6.298  0.00  0.00    +0.002 C 
ATOM      8  CD2 LEU A   1      10.683 -20.896   5.823  0.00  0.00    +0.000 C 
ATOM      9  CD1 LEU A   1      10.747 -18.260   5.262  0.00  0.00    +0.000 C 
ENDBRANCH   6   7
ENDBRANCH   1   6
TORSDOF 4
REMARK  Name = ../refined-set-2016/3guz/3guz_pocket.pdb
REMARK  129 active torsions:
REMARK  status: ('A' for Active; 'I' for Inactive)
REMARK    1  A    between atoms: _1  and  _3
REMARK    2  A    between atoms: _3  and  _4
REMARK    3  A    between atoms: _3  and  _6
REMARK    4  A    between atoms: _10  and  _11
REMARK    5  A    between atoms: _16  and  _18
REMARK    6  A    between atoms: _18  and  _19
REMARK    7  A    between atoms: _18  and  _21
REMARK    8  A    between atoms: _21  and  _22
REMARK    9  A    between atoms: _25  and  _27
REMARK   10  A    between atoms: _27  and  _28
REMARK   11  A    between atoms: _27  and  _30
REMARK   12  A    between atoms: _30  and  _31
REMARK   13  A    between atoms: _31  and  _32
REMARK   14  A    between atoms: _34  and  _36
REMARK   15  A    between atoms: _36  and  _37
REMARK   16  A    between atoms: _39  and  _41
REMARK   17  A    between atoms: _41  and  _42
REMARK   18  A    between atoms: _41  and  _44
REMARK   19  A    between atoms: _44  and  _45
REMARK   20  A    between atoms: _48  and  _50
REMARK   21  A    between atoms: _50  and  _51
REMARK   22  A    between atoms: _50  and  _53
REMARK   23  A    between atoms: _53  and  _54
REMARK   24  A    between atoms: _59  and  _61
REMARK   25  A    between atoms: _61  and  _62
REMARK   26  A    between atoms: _61  and  _64
REMARK   27  A    between atoms: _64  and  _65
REMARK   28  A    between atoms: _68  and  _70
REMARK   29  A    between atoms: _70  and  _71
REMARK   30  A    between atoms: _70  and  _73
REMARK   31  A    between atoms: _73  and  _74
REMARK   32  A    between atoms: _76  and  _78
REMARK   33  A    between atoms: _78  and  _79
REMARK   34  A    between atoms: _78  and  _81
REMARK   35  A    between atoms: _81  and  _82
REMARK   36  A    between atoms: _85  and  _87
REMARK   37  A    between atoms: _87  and  _88
REMARK   38  A    between atoms: _87  and  _90
REMARK   39  A    between atoms: _90  and  _91
REMARK   40  A    between atoms: _97  and  _99
REMARK   41  A    between atoms: _99  and  _100
REMARK   42  A    between atoms: _99  and  _102
REMARK   43  A    between atoms: _105  and  _107
REMARK   44  A    between atoms: _107  and  _108
REMARK   45  A    between atoms: _107  and  _110
REMARK   46  A    between atoms: _110  and  _111
REMARK   47  A    between atoms: _117  and  _118
REMARK   48  A    between atoms: _123  and  _125
REMARK   49  A    between atoms: _125  and  _126
REMARK   50  A    between atoms: _125  and  _128
REMARK   51  A    between atoms: _128  and  _129
REMARK   52  A    between atoms: _129  and  _130
REMARK   53  A    between atoms: _132  and  _134
REMARK   54  A    between atoms: _134  and  _135
REMARK   55  A    between atoms: _134  and  _137
REMARK   56  A    between atoms: _137  and  _138
REMARK   57  A    between atoms: _138  and  _139
REMARK   58  A    between atoms: _144  and  _146
REMARK   59  A    between atoms: _146  and  _147
REMARK   60  A    between atoms: _146  and  _149
REMARK   61  A    between atoms: _149  and  _150
REMARK   62  A    between atoms: _156  and  _158
REMARK   63  A    between atoms: _158  and  _159
REMARK   64  A    between atoms: _158  and  _161
REMARK   65  A    between atoms: _161  and  _162
REMARK   66  A    between atoms: _167  and  _168
REMARK   67  A    between atoms: _170  and  _172
REMARK   68  A    between atoms: _172  and  _173
REMARK   69  A    between atoms: _172  and  _175
REMARK   70  A    between atoms: _175  and  _176
REMARK   71  A    between atoms: _181  and  _182
REMARK   72  A    between atoms: _184  and  _186
REMARK   73  A    between atoms: _186  and  _187
REMARK   74  A    between atoms: _186  and  _189
REMARK   75  A    between atoms: _189  and  _190
REMARK   76  A    between atoms: _195  and  _197
REMARK   77  A    between atoms: _197  and  _198
REMARK   78  A    between atoms: _197  and  _200
REMARK   79  A    between atoms: _200  and  _201
REMARK   80  A    between atoms: _207  and  _209
REMARK   81  A    between atoms: _209  and  _210
REMARK   82  A    between atoms: _212  and  _214
REMARK   83  A    between atoms: _214  and  _215
REMARK   84  A    between atoms: _214  and  _217
REMARK   85  A    between atoms: _220  and  _222
REMARK   86  A    between atoms: _222  and  _223
REMARK   87  A    between atoms: _222  and  _225
REMARK   88  A    between atoms: _225  and  _226
REMARK   89  A    between atoms: _228  and  _230
REMARK   90  A    between atoms: _230  and  _231
REMARK   91  A    between atoms: _230  and  _233
REMARK   92  A    between atoms: _233  and  _234
REMARK   93  A    between atoms: _237  and  _239
REMARK   94  A    between atoms: _239  and  _240
REMARK   95  A    between atoms: _239  and  _242
REMARK   96  A    between atoms: _242  and  _243
REMARK   97  A    between atoms: _246  and  _248
REMARK   98  A    between atoms: _248  and  _249
REMARK   99  A    between atoms: _248  and  _251
REMARK  100  A    between atoms: _254  and  _256
REMARK  101  A    between atoms: _256  and  _257
REMARK  102  A    between atoms: _256  and  _259
REMARK  103  A    between atoms: _259  and  _260
REMARK  104  A    between atoms: _262  and  _264
REMARK  105  A    between atoms: _264  and  _265
REMARK  106  A    between atoms: _264  and  _267
REMARK  107  A    between atoms: _267  and  _268
REMARK  108  A    between atoms: _271  and  _273
REMARK  109  A    between atoms: _273  and  _274
REMARK  110  A    between atoms: _273  and  _276
REMARK  111  A    between atoms: _278  and  _280
REMARK  112  A    between atoms: _280  and  _281
REMARK  113  A    between atoms: _280  and  _283
REMARK  114  A    between atoms: _283  and  _284
REMARK  115  A    between atoms: _290  and  _292
REMARK  116  A    between atoms: _292  and  _293
REMARK  117  A    between atoms: _295  and  _297
REMARK  118  A    between atoms: _297  and  _298
REMARK  119  A    between atoms: _297  and  _300
REMARK  120  A    between atoms: _300  and  _301
REMARK  121  A    between atoms: _304  and  _306
REMARK  122  A    between atoms: _306  and  _307
REMARK  123  A    between atoms: _306  and  _309
REMARK  124  A    between atoms: _309  and  _310
REMARK  125  A    between atoms: _310  and  _311
REMARK  126  A    between atoms: _316  and  _318
REMARK  127  A    between atoms: _318  and  _319
REMARK  128  A    between atoms: _318  and  _321
REMARK  129  A    between atoms: _321  and  _322
REMARK                            x       y       z     vdW  Elec       q    Type
REMARK                         _______ _______ _______ _____ _____    ______ ____
ROOT
ATOM      1  CB  HIS A   1       6.776 -17.775   6.091  0.00  0.00    +0.072 C 
ENDROOT
BRANCH   1   2
ATOM      2  CG  HIS A   1       7.616 -16.559   5.950  0.00  0.00    +0.082 A 
ATOM      3  ND1 HIS A   1       8.211 -15.935   7.044  0.00  0.00    -0.227 NA
ATOM      4  CE1 HIS A   1       8.823 -14.840   6.630  0.00  0.00    +0.199 A 
ATOM      5  NE2 HIS A   1       8.657 -14.733   5.324  0.00  0.00    -0.221 NA
ATOM      6  CD2 HIS A   1       7.900 -15.794   4.871  0.00  0.00    +0.115 A 
ENDBRANCH   1   2
BRANCH   1   7
ATOM      7  CA  HIS A   1       5.307 -17.434   6.286  0.00  0.00    +0.139 C 
BRANCH   7   8
ATOM      8  N   HIS A   1       5.051 -16.789   7.599  0.00  0.00    -0.239 NA
ATOM      9  H   HIS A   1       5.814 -16.716   8.302  0.00  0.00    +0.142 HD
ENDBRANCH   7   8
BRANCH   7  10
ATOM     10  C   HIS A   1       4.512 -18.739   6.190  0.00  0.00    +0.224 C 
ATOM     11  O   HIS A   1       4.271 -19.244   5.079  0.00  0.00    -0.287 OA
ENDBRANCH   7  10
ENDBRANCH   1   7
TORSDOF 4
REMARK  Name = ../refined-set-2016/3guz/3guz_pocket.pdb
REMARK  129 active torsions:
REMARK  status: ('A' for Active; 'I' for Inactive)
REMARK    1  A    between atoms: _1  and  _3
REMARK    2  A    between atoms: _3  and  _4
REMARK    3  A    between atoms: _3  and  _6
REMARK    4  A    between atoms: _10  and  _11
REMARK    5  A    between atoms: _16  and  _18
REMARK    6  A    between atoms: _18  and  _19
REMARK    7  A    between atoms: _18  and  _21
REMARK    8  A    between atoms: _21  and  _22
REMARK    9  A    between atoms: _25  and  _27
REMARK   10  A    between atoms: _27  and  _28
REMARK   11  A    between atoms: _27  and  _30
REMARK   12  A    between atoms: _30  and  _31
REMARK   13  A    between atoms: _31  and  _32
REMARK   14  A    between atoms: _34  and  _36
REMARK   15  A    between atoms: _36  and  _37
REMARK   16  A    between atoms: _39  and  _41
REMARK   17  A    between atoms: _41  and  _42
REMARK   18  A    between atoms: _41  and  _44
REMARK   19  A    between atoms: _44  and  _45
REMARK   20  A    between atoms: _48  and  _50
REMARK   21  A    between atoms: _50  and  _51
REMARK   22  A    between atoms: _50  and  _53
REMARK   23  A    between atoms: _53  and  _54
REMARK   24  A    between atoms: _59  and  _61
REMARK   25  A    between atoms: _61  and  _62
REMARK   26  A    between atoms: _61  and  _64
REMARK   27  A    between atoms: _64  and  _65
REMARK   28  A    between atoms: _68  and  _70
REMARK   29  A    between atoms: _70  and  _71
REMARK   30  A    between atoms: _70  and  _73
REMARK   31  A    between atoms: _73  and  _74
REMARK   32  A    between atoms: _76  and  _78
REMARK   33  A    between atoms: _78  and  _79
REMARK   34  A    between atoms: _78  and  _81
REMARK   35  A    between atoms: _81  and  _82
REMARK   36  A    between atoms: _85  and  _87
REMARK   37  A    between atoms: _87  and  _88
REMARK   38  A    between atoms: _87  and  _90
REMARK   39  A    between atoms: _90  and  _91
REMARK   40  A    between atoms: _97  and  _99
REMARK   41  A    between atoms: _99  and  _100
REMARK   42  A    between atoms: _99  and  _102
REMARK   43  A    between atoms: _105  and  _107
REMARK   44  A    between atoms: _107  and  _108
REMARK   45  A    between atoms: _107  and  _110
REMARK   46  A    between atoms: _110  and  _111
REMARK   47  A    between atoms: _117  and  _118
REMARK   48  A    between atoms: _123  and  _125
REMARK   49  A    between atoms: _125  and  _126
REMARK   50  A    between atoms: _125  and  _128
REMARK   51  A    between atoms: _128  and  _129
REMARK   52  A    between atoms: _129  and  _130
REMARK   53  A    between atoms: _132  and  _134
REMARK   54  A    between atoms: _134  and  _135
REMARK   55  A    between atoms: _134  and  _137
REMARK   56  A    between atoms: _137  and  _138
REMARK   57  A    between atoms: _138  and  _139
REMARK   58  A    between atoms: _144  and  _146
REMARK   59  A    between atoms: _146  and  _147
REMARK   60  A    between atoms: _146  and  _149
REMARK   61  A    between atoms: _149  and  _150
REMARK   62  A    between atoms: _156  and  _158
REMARK   63  A    between atoms: _158  and  _159
REMARK   64  A    between atoms: _158  and  _161
REMARK   65  A    between atoms: _161  and  _162
REMARK   66  A    between atoms: _167  and  _168
REMARK   67  A    between atoms: _170  and  _172
REMARK   68  A    between atoms: _172  and  _173
REMARK   69  A    between atoms: _172  and  _175
REMARK   70  A    between atoms: _175  and  _176
REMARK   71  A    between atoms: _181  and  _182
REMARK   72  A    between atoms: _184  and  _186
REMARK   73  A    between atoms: _186  and  _187
REMARK   74  A    between atoms: _186  and  _189
REMARK   75  A    between atoms: _189  and  _190
REMARK   76  A    between atoms: _195  and  _197
REMARK   77  A    between atoms: _197  and  _198
REMARK   78  A    between atoms: _197  and  _200
REMARK   79  A    between atoms: _200  and  _201
REMARK   80  A    between atoms: _207  and  _209
REMARK   81  A    between atoms: _209  and  _210
REMARK   82  A    between atoms: _212  and  _214
REMARK   83  A    between atoms: _214  and  _215
REMARK   84  A    between atoms: _214  and  _217
REMARK   85  A    between atoms: _220  and  _222
REMARK   86  A    between atoms: _222  and  _223
REMARK   87  A    between atoms: _222  and  _225
REMARK   88  A    between atoms: _225  and  _226
REMARK   89  A    between atoms: _228  and  _230
REMARK   90  A    between atoms: _230  and  _231
REMARK   91  A    between atoms: _230  and  _233
REMARK   92  A    between atoms: _233  and  _234
REMARK   93  A    between atoms: _237  and  _239
REMARK   94  A    between atoms: _239  and  _240
REMARK   95  A    between atoms: _239  and  _242
REMARK   96  A    between atoms: _242  and  _243
REMARK   97  A    between atoms: _246  and  _248
REMARK   98  A    between atoms: _248  and  _249
REMARK   99  A    between atoms: _248  and  _251
REMARK  100  A    between atoms: _254  and  _256
REMARK  101  A    between atoms: _256  and  _257
REMARK  102  A    between atoms: _256  and  _259
REMARK  103  A    between atoms: _259  and  _260
REMARK  104  A    between atoms: _262  and  _264
REMARK  105  A    between atoms: _264  and  _265
REMARK  106  A    between atoms: _264  and  _267
REMARK  107  A    between atoms: _267  and  _268
REMARK  108  A    between atoms: _271  and  _273
REMARK  109  A    between atoms: _273  and  _274
REMARK  110  A    between atoms: _273  and  _276
REMARK  111  A    between atoms: _278  and  _280
REMARK  112  A    between atoms: _280  and  _281
REMARK  113  A    between atoms: _280  and  _283
REMARK  114  A    between atoms: _283  and  _284
REMARK  115  A    between atoms: _290  and  _292
REMARK  116  A    between atoms: _292  and  _293
REMARK  117  A    between atoms: _295  and  _297
REMARK  118  A    between atoms: _297  and  _298
REMARK  119  A    between atoms: _297  and  _300
REMARK  120  A    between atoms: _300  and  _301
REMARK  121  A    between atoms: _304  and  _306
REMARK  122  A    between atoms: _306  and  _307
REMARK  123  A    between atoms: _306  and  _309
REMARK  124  A    between atoms: _309  and  _310
REMARK  125  A    between atoms: _310  and  _311
REMARK  126  A    between atoms: _316  and  _318
REMARK  127  A    between atoms: _318  and  _319
REMARK  128  A    between atoms: _318  and  _321
REMARK  129  A    between atoms: _321  and  _322
REMARK                            x       y       z     vdW  Elec       q    Type
REMARK                         _______ _______ _______ _____ _____    ______ ____
ROOT
ATOM      1  CA  LEU A   1       1.808 -19.237   2.476  0.00  0.00    +0.133 C 
ENDROOT
BRANCH   1   2
ATOM      2  N   LEU A   1       1.550 -18.881   3.883  0.00  0.00    -0.239 NA
ATOM      3  H   LEU A   1       2.286 -18.390   4.430  0.00  0.00    +0.142 HD
ENDBRANCH   1   2
BRANCH   1   4
ATOM      4  C   LEU A   1       1.886 -20.749   2.331  0.00  0.00    +0.224 C 
ATOM      5  O   LEU A   1       1.383 -21.294   1.411  0.00  0.00    -0.287 OA
ENDBRANCH   1   4
BRANCH   1   6
ATOM      6  CB  LEU A   1       3.148 -18.596   1.994  0.00  0.00    +0.025 C 
BRANCH   6   7
ATOM      7  CG  LEU A   1       3.089 -17.078   2.123  0.00  0.00    +0.002 C 
ATOM      8  CD2 LEU A   1       4.522 -16.599   1.776  0.00  0.00    +0.000 C 
ATOM      9  CD1 LEU A   1       1.990 -16.374   1.280  0.00  0.00    +0.000 C 
ENDBRANCH   6   7
ENDBRANCH   1   6
TORSDOF 4
REMARK  Name = ../refined-set-2016/3guz/3guz_pocket.pdb
REMARK  129 active torsions:
REMARK  status: ('A' for Active; 'I' for Inactive)
REMARK    1  A    between atoms: _1  and  _3
REMARK    2  A    between atoms: _3  and  _4
REMARK    3  A    between atoms: _3  and  _6
REMARK    4  A    between atoms: _10  and  _11
REMARK    5  A    between atoms: _16  and  _18
REMARK    6  A    between atoms: _18  and  _19
REMARK    7  A    between atoms: _18  and  _21
REMARK    8  A    between atoms: _21  and  _22
REMARK    9  A    between atoms: _25  and  _27
REMARK   10  A    between atoms: _27  and  _28
REMARK   11  A    between atoms: _27  and  _30
REMARK   12  A    between atoms: _30  and  _31
REMARK   13  A    between atoms: _31  and  _32
REMARK   14  A    between atoms: _34  and  _36
REMARK   15  A    between atoms: _36  and  _37
REMARK   16  A    between atoms: _39  and  _41
REMARK   17  A    between atoms: _41  and  _42
REMARK   18  A    between atoms: _41  and  _44
REMARK   19  A    between atoms: _44  and  _45
REMARK   20  A    between atoms: _48  and  _50
REMARK   21  A    between atoms: _50  and  _51
REMARK   22  A    between atoms: _50  and  _53
REMARK   23  A    between atoms: _53  and  _54
REMARK   24  A    between atoms: _59  and  _61
REMARK   25  A    between atoms: _61  and  _62
REMARK   26  A    between atoms: _61  and  _64
REMARK   27  A    between atoms: _64  and  _65
REMARK   28  A    between atoms: _68  and  _70
REMARK   29  A    between atoms: _70  and  _71
REMARK   30  A    between atoms: _70  and  _73
REMARK   31  A    between atoms: _73  and  _74
REMARK   32  A    between atoms: _76  and  _78
REMARK   33  A    between atoms: _78  and  _79
REMARK   34  A    between atoms: _78  and  _81
REMARK   35  A    between atoms: _81  and  _82
REMARK   36  A    between atoms: _85  and  _87
REMARK   37  A    between atoms: _87  and  _88
REMARK   38  A    between atoms: _87  and  _90
REMARK   39  A    between atoms: _90  and  _91
REMARK   40  A    between atoms: _97  and  _99
REMARK   41  A    between atoms: _99  and  _100
REMARK   42  A    between atoms: _99  and  _102
REMARK   43  A    between atoms: _105  and  _107
REMARK   44  A    between atoms: _107  and  _108
REMARK   45  A    between atoms: _107  and  _110
REMARK   46  A    between atoms: _110  and  _111
REMARK   47  A    between atoms: _117  and  _118
REMARK   48  A    between atoms: _123  and  _125
REMARK   49  A    between atoms: _125  and  _126
REMARK   50  A    between atoms: _125  and  _128
REMARK   51  A    between atoms: _128  and  _129
REMARK   52  A    between atoms: _129  and  _130
REMARK   53  A    between atoms: _132  and  _134
REMARK   54  A    between atoms: _134  and  _135
REMARK   55  A    between atoms: _134  and  _137
REMARK   56  A    between atoms: _137  and  _138
REMARK   57  A    between atoms: _138  and  _139
REMARK   58  A    between atoms: _144  and  _146
REMARK   59  A    between atoms: _146  and  _147
REMARK   60  A    between atoms: _146  and  _149
REMARK   61  A    between atoms: _149  and  _150
REMARK   62  A    between atoms: _156  and  _158
REMARK   63  A    between atoms: _158  and  _159
REMARK   64  A    between atoms: _158  and  _161
REMARK   65  A    between atoms: _161  and  _162
REMARK   66  A    between atoms: _167  and  _168
REMARK   67  A    between atoms: _170  and  _172
REMARK   68  A    between atoms: _172  and  _173
REMARK   69  A    between atoms: _172  and  _175
REMARK   70  A    between atoms: _175  and  _176
REMARK   71  A    between atoms: _181  and  _182
REMARK   72  A    between atoms: _184  and  _186
REMARK   73  A    between atoms: _186  and  _187
REMARK   74  A    between atoms: _186  and  _189
REMARK   75  A    between atoms: _189  and  _190
REMARK   76  A    between atoms: _195  and  _197
REMARK   77  A    between atoms: _197  and  _198
REMARK   78  A    between atoms: _197  and  _200
REMARK   79  A    between atoms: _200  and  _201
REMARK   80  A    between atoms: _207  and  _209
REMARK   81  A    between atoms: _209  and  _210
REMARK   82  A    between atoms: _212  and  _214
REMARK   83  A    between atoms: _214  and  _215
REMARK   84  A    between atoms: _214  and  _217
REMARK   85  A    between atoms: _220  and  _222
REMARK   86  A    between atoms: _222  and  _223
REMARK   87  A    between atoms: _222  and  _225
REMARK   88  A    between atoms: _225  and  _226
REMARK   89  A    between atoms: _228  and  _230
REMARK   90  A    between atoms: _230  and  _231
REMARK   91  A    between atoms: _230  and  _233
REMARK   92  A    between atoms: _233  and  _234
REMARK   93  A    between atoms: _237  and  _239
REMARK   94  A    between atoms: _239  and  _240
REMARK   95  A    between atoms: _239  and  _242
REMARK   96  A    between atoms: _242  and  _243
REMARK   97  A    between atoms: _246  and  _248
REMARK   98  A    between atoms: _248  and  _249
REMARK   99  A    between atoms: _248  and  _251
REMARK  100  A    between atoms: _254  and  _256
REMARK  101  A    between atoms: _256  and  _257
REMARK  102  A    between atoms: _256  and  _259
REMARK  103  A    between atoms: _259  and  _260
REMARK  104  A    between atoms: _262  and  _264
REMARK  105  A    between atoms: _264  and  _265
REMARK  106  A    between atoms: _264  and  _267
REMARK  107  A    between atoms: _267  and  _268
REMARK  108  A    between atoms: _271  and  _273
REMARK  109  A    between atoms: _273  and  _274
REMARK  110  A    between atoms: _273  and  _276
REMARK  111  A    between atoms: _278  and  _280
REMARK  112  A    between atoms: _280  and  _281
REMARK  113  A    between atoms: _280  and  _283
REMARK  114  A    between atoms: _283  and  _284
REMARK  115  A    between atoms: _290  and  _292
REMARK  116  A    between atoms: _292  and  _293
REMARK  117  A    between atoms: _295  and  _297
REMARK  118  A    between atoms: _297  and  _298
REMARK  119  A    between atoms: _297  and  _300
REMARK  120  A    between atoms: _300  and  _301
REMARK  121  A    between atoms: _304  and  _306
REMARK  122  A    between atoms: _306  and  _307
REMARK  123  A    between atoms: _306  and  _309
REMARK  124  A    between atoms: _309  and  _310
REMARK  125  A    between atoms: _310  and  _311
REMARK  126  A    between atoms: _316  and  _318
REMARK  127  A    between atoms: _318  and  _319
REMARK  128  A    between atoms: _318  and  _321
REMARK  129  A    between atoms: _321  and  _322
REMARK                            x       y       z     vdW  Elec       q    Type
REMARK                         _______ _______ _______ _____ _____    ______ ____
ROOT
ATOM      1  CA  ASN A   5      18.396 -12.583  -3.686  0.00  0.00    +0.158 C 
ENDROOT
BRANCH   1   2
ATOM      2  C   ASN A   5      19.175 -11.285  -3.778  0.00  0.00    +0.244 C 
ATOM      3  O   ASN A   5      18.586 -10.239  -3.596  0.00  0.00    -0.273 OA
ATOM      4  N   PRO A   6      20.477 -11.347  -4.129  0.00  0.00    -0.272 N 
ATOM      5  CA  PRO A   6      21.228 -10.082  -4.138  0.00  0.00    +0.152 C 
ATOM      6  CB  PRO A   6      22.664 -10.495  -4.605  0.00  0.00    +0.031 C 
ATOM      7  CG  PRO A   6      22.776 -12.009  -4.217  0.00  0.00    +0.024 C 
ATOM      8  CD  PRO A   6      21.330 -12.539  -4.404  0.00  0.00    +0.094 C 
BRANCH   5   9
ATOM      9  C   PRO A   6      20.661  -9.010  -5.064  0.00  0.00    +0.241 C 
ATOM     10  O   PRO A   6      20.857  -7.784  -4.763  0.00  0.00    -0.273 OA
ATOM     11  N   MET A   7      20.079  -9.428  -6.203  0.00  0.00    -0.297 N 
ATOM     12  H   MET A   7      19.957 -10.442  -6.397  0.00  0.00    +0.150 HD
BRANCH  11  13
ATOM     13  CA  MET A   7      19.614  -8.407  -7.177  0.00  0.00    +0.149 C 
BRANCH  13  14
ATOM     14  C   MET A   7      18.525  -7.465  -6.629  0.00  0.00    +0.241 C 
ATOM     15  N   GLN A   8      17.865  -7.848  -5.547  0.00  0.00    -0.297 N 
ATOM     16  H   GLN A   8      18.108  -8.725  -5.043  0.00  0.00    +0.150 HD
ATOM     17  O   MET A   7      18.294  -6.391  -7.159  0.00  0.00    -0.273 OA
BRANCH  15  18
ATOM     18  CA  GLN A   8      16.767  -6.973  -5.088  0.00  0.00    +0.149 C 
BRANCH  18  19
ATOM     19  C   GLN A   8      17.123  -6.148  -3.861  0.00  0.00    +0.241 C 
ATOM     20  O   GLN A   8      16.278  -5.506  -3.299  0.00  0.00    -0.273 OA
ATOM     21  N   PHE A   9      18.399  -6.153  -3.465  0.00  0.00    -0.298 N 
ATOM     22  H   PHE A   9      19.095  -6.753  -3.951  0.00  0.00    +0.150 HD
BRANCH  21  23
ATOM     23  CA  PHE A   9      18.814  -5.303  -2.335  0.00  0.00    +0.141 C 
BRANCH  23  24
ATOM     24  C   PHE A   9      19.513  -4.077  -2.875  0.00  0.00    +0.227 C 
ATOM     25  O   PHE A   9      20.447  -4.204  -3.653  0.00  0.00    -0.286 OA
ENDBRANCH  23  24
BRANCH  23  26
ATOM     26  CB  PHE A   9      19.753  -6.072  -1.432  0.00  0.00    +0.054 C 
BRANCH  26  27
ATOM     27  CG  PHE A   9      19.052  -7.048  -0.544  0.00  0.00    -0.020 A 
ATOM     28  CD2 PHE A   9      18.766  -6.715   0.806  0.00  0.00    -0.004 A 
ATOM     29  CE2 PHE A   9      18.079  -7.618   1.622  0.00  0.00    -0.000 A 
ATOM     30  CZ  PHE A   9      17.717  -8.916   1.103  0.00  0.00    -0.000 A 
ATOM     31  CE1 PHE A   9      18.046  -9.266  -0.190  0.00  0.00    -0.000 A 
ATOM     32  CD1 PHE A   9      18.699  -8.329  -1.032  0.00  0.00    -0.004 A 
ENDBRANCH  26  27
ENDBRANCH  23  26
ENDBRANCH  21  23
ENDBRANCH  18  19
BRANCH  18  33
ATOM     33  CB  GLN A   8      15.516  -7.818  -4.812  0.00  0.00    +0.039 C 
BRANCH  33  34
ATOM     34  CG  GLN A   8      15.629  -8.775  -3.581  0.00  0.00    +0.087 C 
BRANCH  34  35
ATOM     35  CD  GLN A   8      14.321  -9.574  -3.471  0.00  0.00    +0.219 C 
ATOM     36  OE1 GLN A   8      13.454  -9.261  -2.633  0.00  0.00    -0.275 OA
ATOM     37  NE2 GLN A   8      14.152 -10.553  -4.306  0.00  0.00    -0.329 N 
ATOM     38 HE21 GLN A   8      13.271 -11.105  -4.289  0.00  0.00    +0.145 HD
ATOM     39 HE22 GLN A   8      14.898 -10.786  -4.992  0.00  0.00    +0.145 HD
ENDBRANCH  34  35
ENDBRANCH  33  34
ENDBRANCH  18  33
ENDBRANCH  15  18
ENDBRANCH  13  14
BRANCH  13  40
ATOM     40  CB  MET A   7      19.097  -9.065  -8.458  0.00  0.00    +0.041 C 
BRANCH  40  41
ATOM     41  CG  MET A   7      19.052  -8.105  -9.673  0.00  0.00    +0.060 C 
BRANCH  41  42
ATOM     42  SD  MET A   7      18.440  -8.965 -11.134  0.00  0.00    -0.139 S 
ATOM     43  CE  MET A   7      19.690 -10.153 -11.412  0.00  0.00    +0.069 C 
ENDBRANCH  41  42
ENDBRANCH  40  41
ENDBRANCH  13  40
ENDBRANCH  11  13
ENDBRANCH   5   9
ENDBRANCH   1   2
BRANCH   1  46
ATOM     44  C   VAL A   4      18.947 -13.724  -1.570  0.00  0.00    +0.241 C 
ATOM     45  O   VAL A   4      20.137 -13.959  -1.895  0.00  0.00    -0.273 OA
ATOM     46  N   ASN A   5      18.117 -12.972  -2.285  0.00  0.00    -0.297 N 
ATOM     47  H   ASN A   5      17.235 -12.643  -1.842  0.00  0.00    +0.150 HD
BRANCH  44  48
ATOM     48  CA  VAL A   4      18.369 -14.315  -0.337  0.00  0.00    +0.149 C 
BRANCH  48  50
ATOM     49  C   PHE A   3      17.203 -16.225  -1.229  0.00  0.00    +0.241 C 
ATOM     50  N   VAL A   4      18.252 -15.738  -0.581  0.00  0.00    -0.297 N 
ATOM     51  H   VAL A   4      18.996 -16.382  -0.245  0.00  0.00    +0.150 HD
ATOM     52  O   PHE A   3      16.239 -15.526  -1.580  0.00  0.00    -0.273 OA
BRANCH  49  53
ATOM     53  CA  PHE A   3      17.204 -17.706  -1.507  0.00  0.00    +0.153 C 
BRANCH  53  56
ATOM     54  C   ILE A   2      16.103 -19.579  -0.471  0.00  0.00    +0.241 C 
ATOM     55  O   ILE A   2      17.112 -20.319  -0.760  0.00  0.00    -0.273 OA
ATOM     56  N   PHE A   3      16.050 -18.286  -0.785  0.00  0.00    -0.297 N 
ATOM     57  H   PHE A   3      15.226 -17.704  -0.532  0.00  0.00    +0.150 HD
BRANCH  54  58
ATOM     58  CA  ILE A   2      14.897 -20.137   0.238  0.00  0.00    +0.148 C 
BRANCH  58  61
ATOM     59  C   SER A   1      12.978 -20.933  -1.047  0.00  0.00    +0.241 C 
ATOM     60  O   SER A   1      12.204 -20.175  -0.416  0.00  0.00    -0.274 OA
ATOM     61  N   ILE A   2      14.252 -21.056  -0.737  0.00  0.00    -0.297 N 
ATOM     62  H   ILE A   2      14.816 -21.808  -1.181  0.00  0.00    +0.150 HD
BRANCH  59  63
ATOM     63  CA  SER A   1      12.498 -21.840  -2.197  0.00  0.00    +0.174 C 
BRANCH  63  64
ATOM     64  N   SER A   1      11.085 -22.241  -1.899  0.00  0.00    -0.236 NA
ATOM     65  H   SER A   1      10.279 -21.648  -2.181  0.00  0.00    +0.142 HD
ENDBRANCH  63  64
BRANCH  63  66
ATOM     66  CB  SER A   1      12.641 -21.105  -3.585  0.00  0.00    +0.163 C 
BRANCH  66  67
ATOM     67  OG  SER A   1      11.767 -19.969  -3.625  0.00  0.00    -0.380 OA
ATOM     68  H   SER A   1      12.007 -19.343  -2.896  0.00  0.00    +0.211 HD
ENDBRANCH  66  67
ENDBRANCH  63  66
ENDBRANCH  59  63
ENDBRANCH  58  61
BRANCH  58  69
ATOM     69  CB  ILE A   2      15.321 -20.884   1.564  0.00  0.00    +0.027 C 
ATOM     70  CG2 ILE A   2      16.277 -20.050   2.419  0.00  0.00    +0.002 C 
BRANCH  69  71
ATOM     71  CG1 ILE A   2      14.082 -21.441   2.313  0.00  0.00    +0.002 C 
ATOM     72  CD1 ILE A   2      14.444 -22.313   3.586  0.00  0.00    +0.000 C 
ENDBRANCH  69  71
ENDBRANCH  58  69
ENDBRANCH  54  58
ENDBRANCH  53  56
BRANCH  53  73
ATOM     73  CB  PHE A   3      17.072 -17.967  -3.046  0.00  0.00    +0.055 C 
BRANCH  73  74
ATOM     74  CG  PHE A   3      18.203 -17.328  -3.849  0.00  0.00    -0.020 A 
ATOM     75  CD2 PHE A   3      19.514 -17.723  -3.578  0.00  0.00    -0.004 A 
ATOM     76  CE2 PHE A   3      20.596 -17.135  -4.262  0.00  0.00    -0.000 A 
ATOM     77  CZ  PHE A   3      20.371 -16.134  -5.225  0.00  0.00    -0.000 A 
ATOM     78  CE1 PHE A   3      19.053 -15.696  -5.492  0.00  0.00    -0.000 A 
ATOM     79  CD1 PHE A   3      17.975 -16.293  -4.804  0.00  0.00    -0.004 A 
ENDBRANCH  73  74
ENDBRANCH  53  73
ENDBRANCH  49  53
ENDBRANCH  48  50
BRANCH  48  80
ATOM     80  CB  VAL A   4      19.213 -13.997   0.952  0.00  0.00    +0.027 C 
ATOM     81  CG2 VAL A   4      18.588 -14.675   2.194  0.00  0.00    +0.002 C 
ATOM     82  CG1 VAL A   4      19.255 -12.474   1.146  0.00  0.00    +0.002 C 
ENDBRANCH  48  80
ENDBRANCH  44  48
ENDBRANCH   1  46
BRANCH   1  83
ATOM     83  CB  ASN A   5      17.010 -12.452  -4.395  0.00  0.00    +0.114 C 
BRANCH  83  84
ATOM     84  CG  ASN A   5      17.143 -11.884  -5.812  0.00  0.00    +0.222 C 
ATOM     85  ND2 ASN A   5      16.121 -11.109  -6.277  0.00  0.00    -0.329 N 
ATOM     86 HD21 ASN A   5      15.241 -11.025  -5.729  0.00  0.00    +0.145 HD
ATOM     87 HD22 ASN A   5      16.222 -10.602  -7.179  0.00  0.00    +0.145 HD
ATOM     88  OD1 ASN A   5      18.233 -12.029  -6.423  0.00  0.00    -0.275 OA
ENDBRANCH  83  84
ENDBRANCH   1  83
TORSDOF 34
REMARK  Name = ../refined-set-2016/3guz/3guz_pocket.pdb
REMARK  129 active torsions:
REMARK  status: ('A' for Active; 'I' for Inactive)
REMARK    1  A    between atoms: _1  and  _3
REMARK    2  A    between atoms: _3  and  _4
REMARK    3  A    between atoms: _3  and  _6
REMARK    4  A    between atoms: _10  and  _11
REMARK    5  A    between atoms: _16  and  _18
REMARK    6  A    between atoms: _18  and  _19
REMARK    7  A    between atoms: _18  and  _21
REMARK    8  A    between atoms: _21  and  _22
REMARK    9  A    between atoms: _25  and  _27
REMARK   10  A    between atoms: _27  and  _28
REMARK   11  A    between atoms: _27  and  _30
REMARK   12  A    between atoms: _30  and  _31
REMARK   13  A    between atoms: _31  and  _32
REMARK   14  A    between atoms: _34  and  _36
REMARK   15  A    between atoms: _36  and  _37
REMARK   16  A    between atoms: _39  and  _41
REMARK   17  A    between atoms: _41  and  _42
REMARK   18  A    between atoms: _41  and  _44
REMARK   19  A    between atoms: _44  and  _45
REMARK   20  A    between atoms: _48  and  _50
REMARK   21  A    between atoms: _50  and  _51
REMARK   22  A    between atoms: _50  and  _53
REMARK   23  A    between atoms: _53  and  _54
REMARK   24  A    between atoms: _59  and  _61
REMARK   25  A    between atoms: _61  and  _62
REMARK   26  A    between atoms: _61  and  _64
REMARK   27  A    between atoms: _64  and  _65
REMARK   28  A    between atoms: _68  and  _70
REMARK   29  A    between atoms: _70  and  _71
REMARK   30  A    between atoms: _70  and  _73
REMARK   31  A    between atoms: _73  and  _74
REMARK   32  A    between atoms: _76  and  _78
REMARK   33  A    between atoms: _78  and  _79
REMARK   34  A    between atoms: _78  and  _81
REMARK   35  A    between atoms: _81  and  _82
REMARK   36  A    between atoms: _85  and  _87
REMARK   37  A    between atoms: _87  and  _88
REMARK   38  A    between atoms: _87  and  _90
REMARK   39  A    between atoms: _90  and  _91
REMARK   40  A    between atoms: _97  and  _99
REMARK   41  A    between atoms: _99  and  _100
REMARK   42  A    between atoms: _99  and  _102
REMARK   43  A    between atoms: _105  and  _107
REMARK   44  A    between atoms: _107  and  _108
REMARK   45  A    between atoms: _107  and  _110
REMARK   46  A    between atoms: _110  and  _111
REMARK   47  A    between atoms: _117  and  _118
REMARK   48  A    between atoms: _123  and  _125
REMARK   49  A    between atoms: _125  and  _126
REMARK   50  A    between atoms: _125  and  _128
REMARK   51  A    between atoms: _128  and  _129
REMARK   52  A    between atoms: _129  and  _130
REMARK   53  A    between atoms: _132  and  _134
REMARK   54  A    between atoms: _134  and  _135
REMARK   55  A    between atoms: _134  and  _137
REMARK   56  A    between atoms: _137  and  _138
REMARK   57  A    between atoms: _138  and  _139
REMARK   58  A    between atoms: _144  and  _146
REMARK   59  A    between atoms: _146  and  _147
REMARK   60  A    between atoms: _146  and  _149
REMARK   61  A    between atoms: _149  and  _150
REMARK   62  A    between atoms: _156  and  _158
REMARK   63  A    between atoms: _158  and  _159
REMARK   64  A    between atoms: _158  and  _161
REMARK   65  A    between atoms: _161  and  _162
REMARK   66  A    between atoms: _167  and  _168
REMARK   67  A    between atoms: _170  and  _172
REMARK   68  A    between atoms: _172  and  _173
REMARK   69  A    between atoms: _172  and  _175
REMARK   70  A    between atoms: _175  and  _176
REMARK   71  A    between atoms: _181  and  _182
REMARK   72  A    between atoms: _184  and  _186
REMARK   73  A    between atoms: _186  and  _187
REMARK   74  A    between atoms: _186  and  _189
REMARK   75  A    between atoms: _189  and  _190
REMARK   76  A    between atoms: _195  and  _197
REMARK   77  A    between atoms: _197  and  _198
REMARK   78  A    between atoms: _197  and  _200
REMARK   79  A    between atoms: _200  and  _201
REMARK   80  A    between atoms: _207  and  _209
REMARK   81  A    between atoms: _209  and  _210
REMARK   82  A    between atoms: _212  and  _214
REMARK   83  A    between atoms: _214  and  _215
REMARK   84  A    between atoms: _214  and  _217
REMARK   85  A    between atoms: _220  and  _222
REMARK   86  A    between atoms: _222  and  _223
REMARK   87  A    between atoms: _222  and  _225
REMARK   88  A    between atoms: _225  and  _226
REMARK   89  A    between atoms: _228  and  _230
REMARK   90  A    between atoms: _230  and  _231
REMARK   91  A    between atoms: _230  and  _233
REMARK   92  A    between atoms: _233  and  _234
REMARK   93  A    between atoms: _237  and  _239
REMARK   94  A    between atoms: _239  and  _240
REMARK   95  A    between atoms: _239  and  _242
REMARK   96  A    between atoms: _242  and  _243
REMARK   97  A    between atoms: _246  and  _248
REMARK   98  A    between atoms: _248  and  _249
REMARK   99  A    between atoms: _248  and  _251
REMARK  100  A    between atoms: _254  and  _256
REMARK  101  A    between atoms: _256  and  _257
REMARK  102  A    between atoms: _256  and  _259
REMARK  103  A    between atoms: _259  and  _260
REMARK  104  A    between atoms: _262  and  _264
REMARK  105  A    between atoms: _264  and  _265
REMARK  106  A    between atoms: _264  and  _267
REMARK  107  A    between atoms: _267  and  _268
REMARK  108  A    between atoms: _271  and  _273
REMARK  109  A    between atoms: _273  and  _274
REMARK  110  A    between atoms: _273  and  _276
REMARK  111  A    between atoms: _278  and  _280
REMARK  112  A    between atoms: _280  and  _281
REMARK  113  A    between atoms: _280  and  _283
REMARK  114  A    between atoms: _283  and  _284
REMARK  115  A    between atoms: _290  and  _292
REMARK  116  A    between atoms: _292  and  _293
REMARK  117  A    between atoms: _295  and  _297
REMARK  118  A    between atoms: _297  and  _298
REMARK  119  A    between atoms: _297  and  _300
REMARK  120  A    between atoms: _300  and  _301
REMARK  121  A    between atoms: _304  and  _306
REMARK  122  A    between atoms: _306  and  _307
REMARK  123  A    between atoms: _306  and  _309
REMARK  124  A    between atoms: _309  and  _310
REMARK  125  A    between atoms: _310  and  _311
REMARK  126  A    between atoms: _316  and  _318
REMARK  127  A    between atoms: _318  and  _319
REMARK  128  A    between atoms: _318  and  _321
REMARK  129  A    between atoms: _321  and  _322
REMARK                            x       y       z     vdW  Elec       q    Type
REMARK                         _______ _______ _______ _____ _____    ______ ____
ROOT
ATOM      1  CG  TYR A   1      17.729 -10.887   4.630  0.00  0.00    -0.020 A 
ATOM      2  CD2 TYR A   1      17.223 -12.212   4.685  0.00  0.00    -0.001 A 
ATOM      3  CE2 TYR A   1      15.824 -12.442   4.603  0.00  0.00    +0.036 A 
ATOM      4  CZ  TYR A   1      14.983 -11.360   4.537  0.00  0.00    +0.134 A 
ATOM      5  CE1 TYR A   1      15.484 -10.036   4.473  0.00  0.00    +0.036 A 
ATOM      6  CD1 TYR A   1      16.825  -9.814   4.558  0.00  0.00    -0.001 A 
ENDROOT
BRANCH   4   7
ATOM      7  OH  TYR A   1      13.616 -11.509   4.454  0.00  0.00    -0.506 OA
ATOM      8  HH  TYR A   1      13.190 -10.616   4.416  0.00  0.00    +0.292 HD
ENDBRANCH   4   7
BRANCH   1   9
ATOM      9  CB  TYR A   1      19.211 -10.612   4.717  0.00  0.00    +0.051 C 
BRANCH   9  10
ATOM     10  CA  TYR A   1      19.665 -10.314   6.138  0.00  0.00    +0.137 C 
BRANCH  10  11
ATOM     11  N   TYR A   1      20.967  -9.677   6.186  0.00  0.00    -0.239 NA
ATOM     12  H   TYR A   1      21.533  -9.567   5.320  0.00  0.00    +0.142 HD
ENDBRANCH  10  11
BRANCH  10  13
ATOM     13  C   TYR A   1      19.839 -11.624   6.864  0.00  0.00    +0.224 C 
ATOM     14  O   TYR A   1      20.820 -12.383   6.557  0.00  0.00    -0.287 OA
ENDBRANCH  10  13
ENDBRANCH   9  10
ENDBRANCH   1   9
TORSDOF 5
REMARK  Name = ../refined-set-2016/3guz/3guz_pocket.pdb
REMARK  129 active torsions:
REMARK  status: ('A' for Active; 'I' for Inactive)
REMARK    1  A    between atoms: _1  and  _3
REMARK    2  A    between atoms: _3  and  _4
REMARK    3  A    between atoms: _3  and  _6
REMARK    4  A    between atoms: _10  and  _11
REMARK    5  A    between atoms: _16  and  _18
REMARK    6  A    between atoms: _18  and  _19
REMARK    7  A    between atoms: _18  and  _21
REMARK    8  A    between atoms: _21  and  _22
REMARK    9  A    between atoms: _25  and  _27
REMARK   10  A    between atoms: _27  and  _28
REMARK   11  A    between atoms: _27  and  _30
REMARK   12  A    between atoms: _30  and  _31
REMARK   13  A    between atoms: _31  and  _32
REMARK   14  A    between atoms: _34  and  _36
REMARK   15  A    between atoms: _36  and  _37
REMARK   16  A    between atoms: _39  and  _41
REMARK   17  A    between atoms: _41  and  _42
REMARK   18  A    between atoms: _41  and  _44
REMARK   19  A    between atoms: _44  and  _45
REMARK   20  A    between atoms: _48  and  _50
REMARK   21  A    between atoms: _50  and  _51
REMARK   22  A    between atoms: _50  and  _53
REMARK   23  A    between atoms: _53  and  _54
REMARK   24  A    between atoms: _59  and  _61
REMARK   25  A    between atoms: _61  and  _62
REMARK   26  A    between atoms: _61  and  _64
REMARK   27  A    between atoms: _64  and  _65
REMARK   28  A    between atoms: _68  and  _70
REMARK   29  A    between atoms: _70  and  _71
REMARK   30  A    between atoms: _70  and  _73
REMARK   31  A    between atoms: _73  and  _74
REMARK   32  A    between atoms: _76  and  _78
REMARK   33  A    between atoms: _78  and  _79
REMARK   34  A    between atoms: _78  and  _81
REMARK   35  A    between atoms: _81  and  _82
REMARK   36  A    between atoms: _85  and  _87
REMARK   37  A    between atoms: _87  and  _88
REMARK   38  A    between atoms: _87  and  _90
REMARK   39  A    between atoms: _90  and  _91
REMARK   40  A    between atoms: _97  and  _99
REMARK   41  A    between atoms: _99  and  _100
REMARK   42  A    between atoms: _99  and  _102
REMARK   43  A    between atoms: _105  and  _107
REMARK   44  A    between atoms: _107  and  _108
REMARK   45  A    between atoms: _107  and  _110
REMARK   46  A    between atoms: _110  and  _111
REMARK   47  A    between atoms: _117  and  _118
REMARK   48  A    between atoms: _123  and  _125
REMARK   49  A    between atoms: _125  and  _126
REMARK   50  A    between atoms: _125  and  _128
REMARK   51  A    between atoms: _128  and  _129
REMARK   52  A    between atoms: _129  and  _130
REMARK   53  A    between atoms: _132  and  _134
REMARK   54  A    between atoms: _134  and  _135
REMARK   55  A    between atoms: _134  and  _137
REMARK   56  A    between atoms: _137  and  _138
REMARK   57  A    between atoms: _138  and  _139
REMARK   58  A    between atoms: _144  and  _146
REMARK   59  A    between atoms: _146  and  _147
REMARK   60  A    between atoms: _146  and  _149
REMARK   61  A    between atoms: _149  and  _150
REMARK   62  A    between atoms: _156  and  _158
REMARK   63  A    between atoms: _158  and  _159
REMARK   64  A    between atoms: _158  and  _161
REMARK   65  A    between atoms: _161  and  _162
REMARK   66  A    between atoms: _167  and  _168
REMARK   67  A    between atoms: _170  and  _172
REMARK   68  A    between atoms: _172  and  _173
REMARK   69  A    between atoms: _172  and  _175
REMARK   70  A    between atoms: _175  and  _176
REMARK   71  A    between atoms: _181  and  _182
REMARK   72  A    between atoms: _184  and  _186
REMARK   73  A    between atoms: _186  and  _187
REMARK   74  A    between atoms: _186  and  _189
REMARK   75  A    between atoms: _189  and  _190
REMARK   76  A    between atoms: _195  and  _197
REMARK   77  A    between atoms: _197  and  _198
REMARK   78  A    between atoms: _197  and  _200
REMARK   79  A    between atoms: _200  and  _201
REMARK   80  A    between atoms: _207  and  _209
REMARK   81  A    between atoms: _209  and  _210
REMARK   82  A    between atoms: _212  and  _214
REMARK   83  A    between atoms: _214  and  _215
REMARK   84  A    between atoms: _214  and  _217
REMARK   85  A    between atoms: _220  and  _222
REMARK   86  A    between atoms: _222  and  _223
REMARK   87  A    between atoms: _222  and  _225
REMARK   88  A    between atoms: _225  and  _226
REMARK   89  A    between atoms: _228  and  _230
REMARK   90  A    between atoms: _230  and  _231
REMARK   91  A    between atoms: _230  and  _233
REMARK   92  A    between atoms: _233  and  _234
REMARK   93  A    between atoms: _237  and  _239
REMARK   94  A    between atoms: _239  and  _240
REMARK   95  A    between atoms: _239  and  _242
REMARK   96  A    between atoms: _242  and  _243
REMARK   97  A    between atoms: _246  and  _248
REMARK   98  A    between atoms: _248  and  _249
REMARK   99  A    between atoms: _248  and  _251
REMARK  100  A    between atoms: _254  and  _256
REMARK  101  A    between atoms: _256  and  _257
REMARK  102  A    between atoms: _256  and  _259
REMARK  103  A    between atoms: _259  and  _260
REMARK  104  A    between atoms: _262  and  _264
REMARK  105  A    between atoms: _264  and  _265
REMARK  106  A    between atoms: _264  and  _267
REMARK  107  A    between atoms: _267  and  _268
REMARK  108  A    between atoms: _271  and  _273
REMARK  109  A    between atoms: _273  and  _274
REMARK  110  A    between atoms: _273  and  _276
REMARK  111  A    between atoms: _278  and  _280
REMARK  112  A    between atoms: _280  and  _281
REMARK  113  A    between atoms: _280  and  _283
REMARK  114  A    between atoms: _283  and  _284
REMARK  115  A    between atoms: _290  and  _292
REMARK  116  A    between atoms: _292  and  _293
REMARK  117  A    between atoms: _295  and  _297
REMARK  118  A    between atoms: _297  and  _298
REMARK  119  A    between atoms: _297  and  _300
REMARK  120  A    between atoms: _300  and  _301
REMARK  121  A    between atoms: _304  and  _306
REMARK  122  A    between atoms: _306  and  _307
REMARK  123  A    between atoms: _306  and  _309
REMARK  124  A    between atoms: _309  and  _310
REMARK  125  A    between atoms: _310  and  _311
REMARK  126  A    between atoms: _316  and  _318
REMARK  127  A    between atoms: _318  and  _319
REMARK  128  A    between atoms: _318  and  _321
REMARK  129  A    between atoms: _321  and  _322
REMARK                            x       y       z     vdW  Elec       q    Type
REMARK                         _______ _______ _______ _____ _____    ______ ____
ROOT
ATOM      1  CG  TYR A   1      22.376 -14.077  -9.871  0.00  0.00    -0.020 A 
ATOM      2  CD2 TYR A   1      21.935 -13.914  -8.522  0.00  0.00    -0.001 A 
ATOM      3  CE2 TYR A   1      20.610 -13.410  -8.229  0.00  0.00    +0.036 A 
ATOM      4  CZ  TYR A   1      19.742 -13.127  -9.313  0.00  0.00    +0.134 A 
ATOM      5  CE1 TYR A   1      20.170 -13.318 -10.628  0.00  0.00    +0.036 A 
ATOM      6  CD1 TYR A   1      21.500 -13.740 -10.900  0.00  0.00    -0.001 A 
ENDROOT
BRANCH   4   7
ATOM      7  OH  TYR A   1      18.451 -12.689  -9.112  0.00  0.00    -0.506 OA
ATOM      8  HH  TYR A   1      18.282 -12.597  -8.141  0.00  0.00    +0.292 HD
ENDBRANCH   4   7
BRANCH   1   9
ATOM      9  CB  TYR A   1      23.796 -14.517 -10.206  0.00  0.00    +0.051 C 
BRANCH   9  10
ATOM     10  CA  TYR A   1      23.821 -15.857 -10.981  0.00  0.00    +0.137 C 
BRANCH  10  11
ATOM     11  N   TYR A   1      23.243 -16.933 -10.203  0.00  0.00    -0.239 NA
ATOM     12  H   TYR A   1      23.730 -17.239  -9.337  0.00  0.00    +0.142 HD
ENDBRANCH  10  11
BRANCH  10  13
ATOM     13  C   TYR A   1      25.285 -16.196 -11.254  0.00  0.00    +0.224 C 
ATOM     14  O   TYR A   1      26.168 -15.669 -10.597  0.00  0.00    -0.287 OA
ENDBRANCH  10  13
ENDBRANCH   9  10
ENDBRANCH   1   9
TORSDOF 5
REMARK  Name = ../refined-set-2016/3guz/3guz_pocket.pdb
REMARK  129 active torsions:
REMARK  status: ('A' for Active; 'I' for Inactive)
REMARK    1  A    between atoms: _1  and  _3
REMARK    2  A    between atoms: _3  and  _4
REMARK    3  A    between atoms: _3  and  _6
REMARK    4  A    between atoms: _10  and  _11
REMARK    5  A    between atoms: _16  and  _18
REMARK    6  A    between atoms: _18  and  _19
REMARK    7  A    between atoms: _18  and  _21
REMARK    8  A    between atoms: _21  and  _22
REMARK    9  A    between atoms: _25  and  _27
REMARK   10  A    between atoms: _27  and  _28
REMARK   11  A    between atoms: _27  and  _30
REMARK   12  A    between atoms: _30  and  _31
REMARK   13  A    between atoms: _31  and  _32
REMARK   14  A    between atoms: _34  and  _36
REMARK   15  A    between atoms: _36  and  _37
REMARK   16  A    between atoms: _39  and  _41
REMARK   17  A    between atoms: _41  and  _42
REMARK   18  A    between atoms: _41  and  _44
REMARK   19  A    between atoms: _44  and  _45
REMARK   20  A    between atoms: _48  and  _50
REMARK   21  A    between atoms: _50  and  _51
REMARK   22  A    between atoms: _50  and  _53
REMARK   23  A    between atoms: _53  and  _54
REMARK   24  A    between atoms: _59  and  _61
REMARK   25  A    between atoms: _61  and  _62
REMARK   26  A    between atoms: _61  and  _64
REMARK   27  A    between atoms: _64  and  _65
REMARK   28  A    between atoms: _68  and  _70
REMARK   29  A    between atoms: _70  and  _71
REMARK   30  A    between atoms: _70  and  _73
REMARK   31  A    between atoms: _73  and  _74
REMARK   32  A    between atoms: _76  and  _78
REMARK   33  A    between atoms: _78  and  _79
REMARK   34  A    between atoms: _78  and  _81
REMARK   35  A    between atoms: _81  and  _82
REMARK   36  A    between atoms: _85  and  _87
REMARK   37  A    between atoms: _87  and  _88
REMARK   38  A    between atoms: _87  and  _90
REMARK   39  A    between atoms: _90  and  _91
REMARK   40  A    between atoms: _97  and  _99
REMARK   41  A    between atoms: _99  and  _100
REMARK   42  A    between atoms: _99  and  _102
REMARK   43  A    between atoms: _105  and  _107
REMARK   44  A    between atoms: _107  and  _108
REMARK   45  A    between atoms: _107  and  _110
REMARK   46  A    between atoms: _110  and  _111
REMARK   47  A    between atoms: _117  and  _118
REMARK   48  A    between atoms: _123  and  _125
REMARK   49  A    between atoms: _125  and  _126
REMARK   50  A    between atoms: _125  and  _128
REMARK   51  A    between atoms: _128  and  _129
REMARK   52  A    between atoms: _129  and  _130
REMARK   53  A    between atoms: _132  and  _134
REMARK   54  A    between atoms: _134  and  _135
REMARK   55  A    between atoms: _134  and  _137
REMARK   56  A    between atoms: _137  and  _138
REMARK   57  A    between atoms: _138  and  _139
REMARK   58  A    between atoms: _144  and  _146
REMARK   59  A    between atoms: _146  and  _147
REMARK   60  A    between atoms: _146  and  _149
REMARK   61  A    between atoms: _149  and  _150
REMARK   62  A    between atoms: _156  and  _158
REMARK   63  A    between atoms: _158  and  _159
REMARK   64  A    between atoms: _158  and  _161
REMARK   65  A    between atoms: _161  and  _162
REMARK   66  A    between atoms: _167  and  _168
REMARK   67  A    between atoms: _170  and  _172
REMARK   68  A    between atoms: _172  and  _173
REMARK   69  A    between atoms: _172  and  _175
REMARK   70  A    between atoms: _175  and  _176
REMARK   71  A    between atoms: _181  and  _182
REMARK   72  A    between atoms: _184  and  _186
REMARK   73  A    between atoms: _186  and  _187
REMARK   74  A    between atoms: _186  and  _189
REMARK   75  A    between atoms: _189  and  _190
REMARK   76  A    between atoms: _195  and  _197
REMARK   77  A    between atoms: _197  and  _198
REMARK   78  A    between atoms: _197  and  _200
REMARK   79  A    between atoms: _200  and  _201
REMARK   80  A    between atoms: _207  and  _209
REMARK   81  A    between atoms: _209  and  _210
REMARK   82  A    between atoms: _212  and  _214
REMARK   83  A    between atoms: _214  and  _215
REMARK   84  A    between atoms: _214  and  _217
REMARK   85  A    between atoms: _220  and  _222
REMARK   86  A    between atoms: _222  and  _223
REMARK   87  A    between atoms: _222  and  _225
REMARK   88  A    between atoms: _225  and  _226
REMARK   89  A    between atoms: _228  and  _230
REMARK   90  A    between atoms: _230  and  _231
REMARK   91  A    between atoms: _230  and  _233
REMARK   92  A    between atoms: _233  and  _234
REMARK   93  A    between atoms: _237  and  _239
REMARK   94  A    between atoms: _239  and  _240
REMARK   95  A    between atoms: _239  and  _242
REMARK   96  A    between atoms: _242  and  _243
REMARK   97  A    between atoms: _246  and  _248
REMARK   98  A    between atoms: _248  and  _249
REMARK   99  A    between atoms: _248  and  _251
REMARK  100  A    between atoms: _254  and  _256
REMARK  101  A    between atoms: _256  and  _257
REMARK  102  A    between atoms: _256  and  _259
REMARK  103  A    between atoms: _259  and  _260
REMARK  104  A    between atoms: _262  and  _264
REMARK  105  A    between atoms: _264  and  _265
REMARK  106  A    between atoms: _264  and  _267
REMARK  107  A    between atoms: _267  and  _268
REMARK  108  A    between atoms: _271  and  _273
REMARK  109  A    between atoms: _273  and  _274
REMARK  110  A    between atoms: _273  and  _276
REMARK  111  A    between atoms: _278  and  _280
REMARK  112  A    between atoms: _280  and  _281
REMARK  113  A    between atoms: _280  and  _283
REMARK  114  A    between atoms: _283  and  _284
REMARK  115  A    between atoms: _290  and  _292
REMARK  116  A    between atoms: _292  and  _293
REMARK  117  A    between atoms: _295  and  _297
REMARK  118  A    between atoms: _297  and  _298
REMARK  119  A    between atoms: _297  and  _300
REMARK  120  A    between atoms: _300  and  _301
REMARK  121  A    between atoms: _304  and  _306
REMARK  122  A    between atoms: _306  and  _307
REMARK  123  A    between atoms: _306  and  _309
REMARK  124  A    between atoms: _309  and  _310
REMARK  125  A    between atoms: _310  and  _311
REMARK  126  A    between atoms: _316  and  _318
REMARK  127  A    between atoms: _318  and  _319
REMARK  128  A    between atoms: _318  and  _321
REMARK  129  A    between atoms: _321  and  _322
REMARK                            x       y       z     vdW  Elec       q    Type
REMARK                         _______ _______ _______ _____ _____    ______ ____
ROOT
ATOM      1  C   HIS A   1      13.566  -4.488  -6.952  0.00  0.00    +0.239 C 
ATOM      2  O   HIS A   1      13.664  -5.722  -6.912  0.00  0.00    -0.274 OA
ATOM      3  N   PHE A   2      12.580  -3.874  -7.610  0.00  0.00    -0.298 N 
ATOM      4  H   PHE A   2      12.524  -2.836  -7.639  0.00  0.00    +0.150 HD
ENDROOT
BRANCH   1   5
ATOM      5  CA  HIS A   1      14.502  -3.598  -6.143  0.00  0.00    +0.151 C 
BRANCH   5   6
ATOM      6  N   HIS A   1      15.122  -2.583  -6.983  0.00  0.00    -0.238 NA
ATOM      7  H   HIS A   1      15.040  -1.576  -6.737  0.00  0.00    +0.142 HD
ENDBRANCH   5   6
BRANCH   5   8
ATOM      8  CB  HIS A   1      13.707  -2.955  -4.979  0.00  0.00    +0.074 C 
BRANCH   8   9
ATOM      9  CG  HIS A   1      12.903  -3.935  -4.201  0.00  0.00    +0.082 A 
ATOM     10  ND1 HIS A   1      13.493  -4.909  -3.428  0.00  0.00    -0.227 NA
ATOM     11  CE1 HIS A   1      12.549  -5.666  -2.879  0.00  0.00    +0.199 A 
ATOM     12  NE2 HIS A   1      11.361  -5.207  -3.267  0.00  0.00    -0.221 NA
ATOM     13  CD2 HIS A   1      11.555  -4.132  -4.104  0.00  0.00    +0.115 A 
ENDBRANCH   8   9
ENDBRANCH   5   8
ENDBRANCH   1   5
BRANCH   3  14
ATOM     14  CA  PHE A   2      11.583  -4.696  -8.288  0.00  0.00    +0.141 C 
BRANCH  14  15
ATOM     15  C   PHE A   2      12.120  -5.445  -9.501  0.00  0.00    +0.227 C 
ATOM     16  O   PHE A   2      11.656  -6.545  -9.779  0.00  0.00    -0.286 OA
ENDBRANCH  14  15
BRANCH  14  17
ATOM     17  CB  PHE A   2      10.318  -3.898  -8.605  0.00  0.00    +0.054 C 
BRANCH  17  18
ATOM     18  CG  PHE A   2       9.523  -3.515  -7.361  0.00  0.00    -0.020 A 
ATOM     19  CD2 PHE A   2       8.890  -4.489  -6.610  0.00  0.00    -0.004 A 
ATOM     20  CE2 PHE A   2       8.133  -4.148  -5.471  0.00  0.00    -0.000 A 
ATOM     21  CZ  PHE A   2       8.059  -2.816  -5.080  0.00  0.00    -0.000 A 
ATOM     22  CE1 PHE A   2       8.699  -1.832  -5.843  0.00  0.00    -0.000 A 
ATOM     23  CD1 PHE A   2       9.428  -2.198  -6.990  0.00  0.00    -0.004 A 
ENDBRANCH  17  18
ENDBRANCH  14  17
ENDBRANCH   3  14
TORSDOF 8
REMARK  Name = ../refined-set-2016/3guz/3guz_pocket.pdb
REMARK  129 active torsions:
REMARK  status: ('A' for Active; 'I' for Inactive)
REMARK    1  A    between atoms: _1  and  _3
REMARK    2  A    between atoms: _3  and  _4
REMARK    3  A    between atoms: _3  and  _6
REMARK    4  A    between atoms: _10  and  _11
REMARK    5  A    between atoms: _16  and  _18
REMARK    6  A    between atoms: _18  and  _19
REMARK    7  A    between atoms: _18  and  _21
REMARK    8  A    between atoms: _21  and  _22
REMARK    9  A    between atoms: _25  and  _27
REMARK   10  A    between atoms: _27  and  _28
REMARK   11  A    between atoms: _27  and  _30
REMARK   12  A    between atoms: _30  and  _31
REMARK   13  A    between atoms: _31  and  _32
REMARK   14  A    between atoms: _34  and  _36
REMARK   15  A    between atoms: _36  and  _37
REMARK   16  A    between atoms: _39  and  _41
REMARK   17  A    between atoms: _41  and  _42
REMARK   18  A    between atoms: _41  and  _44
REMARK   19  A    between atoms: _44  and  _45
REMARK   20  A    between atoms: _48  and  _50
REMARK   21  A    between atoms: _50  and  _51
REMARK   22  A    between atoms: _50  and  _53
REMARK   23  A    between atoms: _53  and  _54
REMARK   24  A    between atoms: _59  and  _61
REMARK   25  A    between atoms: _61  and  _62
REMARK   26  A    between atoms: _61  and  _64
REMARK   27  A    between atoms: _64  and  _65
REMARK   28  A    between atoms: _68  and  _70
REMARK   29  A    between atoms: _70  and  _71
REMARK   30  A    between atoms: _70  and  _73
REMARK   31  A    between atoms: _73  and  _74
REMARK   32  A    between atoms: _76  and  _78
REMARK   33  A    between atoms: _78  and  _79
REMARK   34  A    between atoms: _78  and  _81
REMARK   35  A    between atoms: _81  and  _82
REMARK   36  A    between atoms: _85  and  _87
REMARK   37  A    between atoms: _87  and  _88
REMARK   38  A    between atoms: _87  and  _90
REMARK   39  A    between atoms: _90  and  _91
REMARK   40  A    between atoms: _97  and  _99
REMARK   41  A    between atoms: _99  and  _100
REMARK   42  A    between atoms: _99  and  _102
REMARK   43  A    between atoms: _105  and  _107
REMARK   44  A    between atoms: _107  and  _108
REMARK   45  A    between atoms: _107  and  _110
REMARK   46  A    between atoms: _110  and  _111
REMARK   47  A    between atoms: _117  and  _118
REMARK   48  A    between atoms: _123  and  _125
REMARK   49  A    between atoms: _125  and  _126
REMARK   50  A    between atoms: _125  and  _128
REMARK   51  A    between atoms: _128  and  _129
REMARK   52  A    between atoms: _129  and  _130
REMARK   53  A    between atoms: _132  and  _134
REMARK   54  A    between atoms: _134  and  _135
REMARK   55  A    between atoms: _134  and  _137
REMARK   56  A    between atoms: _137  and  _138
REMARK   57  A    between atoms: _138  and  _139
REMARK   58  A    between atoms: _144  and  _146
REMARK   59  A    between atoms: _146  and  _147
REMARK   60  A    between atoms: _146  and  _149
REMARK   61  A    between atoms: _149  and  _150
REMARK   62  A    between atoms: _156  and  _158
REMARK   63  A    between atoms: _158  and  _159
REMARK   64  A    between atoms: _158  and  _161
REMARK   65  A    between atoms: _161  and  _162
REMARK   66  A    between atoms: _167  and  _168
REMARK   67  A    between atoms: _170  and  _172
REMARK   68  A    between atoms: _172  and  _173
REMARK   69  A    between atoms: _172  and  _175
REMARK   70  A    between atoms: _175  and  _176
REMARK   71  A    between atoms: _181  and  _182
REMARK   72  A    between atoms: _184  and  _186
REMARK   73  A    between atoms: _186  and  _187
REMARK   74  A    between atoms: _186  and  _189
REMARK   75  A    between atoms: _189  and  _190
REMARK   76  A    between atoms: _195  and  _197
REMARK   77  A    between atoms: _197  and  _198
REMARK   78  A    between atoms: _197  and  _200
REMARK   79  A    between atoms: _200  and  _201
REMARK   80  A    between atoms: _207  and  _209
REMARK   81  A    between atoms: _209  and  _210
REMARK   82  A    between atoms: _212  and  _214
REMARK   83  A    between atoms: _214  and  _215
REMARK   84  A    between atoms: _214  and  _217
REMARK   85  A    between atoms: _220  and  _222
REMARK   86  A    between atoms: _222  and  _223
REMARK   87  A    between atoms: _222  and  _225
REMARK   88  A    between atoms: _225  and  _226
REMARK   89  A    between atoms: _228  and  _230
REMARK   90  A    between atoms: _230  and  _231
REMARK   91  A    between atoms: _230  and  _233
REMARK   92  A    between atoms: _233  and  _234
REMARK   93  A    between atoms: _237  and  _239
REMARK   94  A    between atoms: _239  and  _240
REMARK   95  A    between atoms: _239  and  _242
REMARK   96  A    between atoms: _242  and  _243
REMARK   97  A    between atoms: _246  and  _248
REMARK   98  A    between atoms: _248  and  _249
REMARK   99  A    between atoms: _248  and  _251
REMARK  100  A    between atoms: _254  and  _256
REMARK  101  A    between atoms: _256  and  _257
REMARK  102  A    between atoms: _256  and  _259
REMARK  103  A    between atoms: _259  and  _260
REMARK  104  A    between atoms: _262  and  _264
REMARK  105  A    between atoms: _264  and  _265
REMARK  106  A    between atoms: _264  and  _267
REMARK  107  A    between atoms: _267  and  _268
REMARK  108  A    between atoms: _271  and  _273
REMARK  109  A    between atoms: _273  and  _274
REMARK  110  A    between atoms: _273  and  _276
REMARK  111  A    between atoms: _278  and  _280
REMARK  112  A    between atoms: _280  and  _281
REMARK  113  A    between atoms: _280  and  _283
REMARK  114  A    between atoms: _283  and  _284
REMARK  115  A    between atoms: _290  and  _292
REMARK  116  A    between atoms: _292  and  _293
REMARK  117  A    between atoms: _295  and  _297
REMARK  118  A    between atoms: _297  and  _298
REMARK  119  A    between atoms: _297  and  _300
REMARK  120  A    between atoms: _300  and  _301
REMARK  121  A    between atoms: _304  and  _306
REMARK  122  A    between atoms: _306  and  _307
REMARK  123  A    between atoms: _306  and  _309
REMARK  124  A    between atoms: _309  and  _310
REMARK  125  A    between atoms: _310  and  _311
REMARK  126  A    between atoms: _316  and  _318
REMARK  127  A    between atoms: _318  and  _319
REMARK  128  A    between atoms: _318  and  _321
REMARK  129  A    between atoms: _321  and  _322
REMARK                            x       y       z     vdW  Elec       q    Type
REMARK                         _______ _______ _______ _____ _____    ______ ____
ROOT
ATOM      1  CA  THR A   4      14.095 -11.554 -12.339  0.00  0.00    +0.176 C 
ENDROOT
BRANCH   1   3
ATOM      2  C   SER A   3      11.791 -11.072 -11.844  0.00  0.00    +0.243 C 
ATOM      3  N   THR A   4      13.072 -10.705 -11.764  0.00  0.00    -0.295 N 
ATOM      4  H   THR A   4      13.334  -9.816 -11.292  0.00  0.00    +0.150 HD
ATOM      5  O   SER A   3      11.454 -12.164 -12.364  0.00  0.00    -0.273 OA
BRANCH   2   6
ATOM      6  CA  SER A   3      10.744 -10.105 -11.267  0.00  0.00    +0.178 C 
BRANCH   6   9
ATOM      7  C   VAL A   2      11.583 -10.155  -8.974  0.00  0.00    +0.241 C 
ATOM      8  O   VAL A   2      11.445 -11.378  -8.968  0.00  0.00    -0.273 OA
ATOM      9  N   SER A   3      11.265  -9.424 -10.039  0.00  0.00    -0.295 N 
ATOM     10  H   SER A   3      11.377  -8.390 -10.019  0.00  0.00    +0.150 HD
BRANCH   7  11
ATOM     11  CA  VAL A   2      12.170  -9.468  -7.738  0.00  0.00    +0.148 C 
BRANCH  11  13
ATOM     12  C   GLY A   1      14.458  -9.055  -8.445  0.00  0.00    +0.240 C 
ATOM     13  N   VAL A   2      13.295  -8.577  -8.043  0.00  0.00    -0.297 N 
ATOM     14  H   VAL A   2      13.174  -7.549  -7.941  0.00  0.00    +0.150 HD
ATOM     15  O   GLY A   1      14.654 -10.270  -8.629  0.00  0.00    -0.274 OA
BRANCH  12  16
ATOM     16  CA  GLY A   1      15.515  -8.038  -8.771  0.00  0.00    +0.169 C 
BRANCH  16  17
ATOM     17  N   GLY A   1      15.018  -6.824  -9.462  0.00  0.00    -0.236 NA
ATOM     18  H   GLY A   1      15.133  -5.892  -9.015  0.00  0.00    +0.142 HD
ENDBRANCH  16  17
ENDBRANCH  12  16
ENDBRANCH  11  13
BRANCH  11  19
ATOM     19  CB  VAL A   2      11.064  -8.677  -6.966  0.00  0.00    +0.027 C 
ATOM     20  CG2 VAL A   2      11.604  -8.138  -5.629  0.00  0.00    +0.002 C 
ATOM     21  CG1 VAL A   2       9.812  -9.581  -6.720  0.00  0.00    +0.002 C 
ENDBRANCH  11  19
ENDBRANCH   7  11
ENDBRANCH   6   9
BRANCH   6  22
ATOM     22  CB  SER A   3      10.251  -9.079 -12.314  0.00  0.00    +0.166 C 
BRANCH  22  23
ATOM     23  OG  SER A   3      11.172  -7.971 -12.341  0.00  0.00    -0.380 OA
ATOM     24  H   SER A   3      10.867  -7.306 -13.008  0.00  0.00    +0.211 HD
ENDBRANCH  22  23
ENDBRANCH   6  22
ENDBRANCH   2   6
ENDBRANCH   1   3
BRANCH   1  25
ATOM     25  C   THR A   4      14.181 -12.891 -11.573  0.00  0.00    +0.243 C 
ATOM     26  N   ILE A   5      14.236 -12.808 -10.258  0.00  0.00    -0.297 N 
ATOM     27  H   ILE A   5      14.128 -11.898  -9.766  0.00  0.00    +0.150 HD
ATOM     28  O   THR A   4      14.164 -13.990 -12.168  0.00  0.00    -0.273 OA
BRANCH  26  29
ATOM     29  CA  ILE A   5      14.459 -14.073  -9.510  0.00  0.00    +0.149 C 
BRANCH  29  30
ATOM     30  C   ILE A   5      13.155 -14.889  -9.539  0.00  0.00    +0.241 C 
ATOM     31  N   VAL A   6      12.013 -14.210  -9.494  0.00  0.00    -0.297 N 
ATOM     32  H   VAL A   6      11.994 -13.170  -9.471  0.00  0.00    +0.150 HD
ATOM     33  O   ILE A   5      13.180 -16.114  -9.593  0.00  0.00    -0.273 OA
BRANCH  31  34
ATOM     34  CA  VAL A   6      10.790 -15.002  -9.478  0.00  0.00    +0.149 C 
BRANCH  34  35
ATOM     35  C   VAL A   6      10.561 -15.664 -10.833  0.00  0.00    +0.241 C 
ATOM     36  O   VAL A   6      10.144 -16.804 -10.859  0.00  0.00    -0.273 OA
ATOM     37  N   SER A   7      10.834 -14.972 -11.946  0.00  0.00    -0.296 N 
ATOM     38  H   SER A   7      11.080 -13.963 -11.885  0.00  0.00    +0.150 HD
BRANCH  37  39
ATOM     39  CA  SER A   7      10.784 -15.649 -13.270  0.00  0.00    +0.166 C 
BRANCH  39  40
ATOM     40  CB  SER A   7      11.697 -16.874 -13.260  0.00  0.00    +0.229 C 
ATOM     41  OG  SER A   7      11.354 -17.924 -13.826  0.00  0.00    -0.286 OA
ENDBRANCH  39  40
BRANCH  39  42
ATOM     42  C   SER A   7      11.298 -14.676 -14.384  0.00  0.00    +0.165 C 
BRANCH  42  43
ATOM     43  O   SER A   7      10.265 -13.761 -14.782  0.00  0.00    -0.380 OA
ATOM     44  H   SER A   7       9.979 -13.227 -13.999  0.00  0.00    +0.211 HD
ENDBRANCH  42  43
ENDBRANCH  39  42
ENDBRANCH  37  39
ENDBRANCH  34  35
BRANCH  34  45
ATOM     45  CB  VAL A   6       9.552 -14.139  -8.990  0.00  0.00    +0.027 C 
ATOM     46  CG2 VAL A   6       9.771 -13.700  -7.526  0.00  0.00    +0.002 C 
ATOM     47  CG1 VAL A   6       8.204 -14.872  -9.224  0.00  0.00    +0.002 C 
ENDBRANCH  34  45
ENDBRANCH  31  34
ENDBRANCH  29  30
BRANCH  29  48
ATOM     48  CB  ILE A   5      14.867 -13.841  -7.979  0.00  0.00    +0.027 C 
ATOM     49  CG2 ILE A   5      13.690 -13.333  -7.165  0.00  0.00    +0.002 C 
BRANCH  48  50
ATOM     50  CG1 ILE A   5      15.262 -15.191  -7.328  0.00  0.00    +0.002 C 
ATOM     51  CD1 ILE A   5      16.338 -16.014  -8.120  0.00  0.00    +0.000 C 
ENDBRANCH  48  50
ENDBRANCH  29  48
ENDBRANCH  26  29
ENDBRANCH   1  25
BRANCH   1  52
ATOM     52  CB  THR A   4      15.458 -10.837 -12.364  0.00  0.00    +0.137 C 
ATOM     53  CG2 THR A   4      16.518 -11.736 -13.002  0.00  0.00    +0.034 C 
BRANCH  52  54
ATOM     54  OG1 THR A   4      15.339  -9.682 -13.220  0.00  0.00    -0.382 OA
ATOM     55  HG1 THR A   4      14.641  -9.078 -12.862  0.00  0.00    +0.210 HD
ENDBRANCH  52  54
ENDBRANCH   1  52
TORSDOF 24
REMARK  Name = ../refined-set-2016/3guz/3guz_pocket.pdb
REMARK  129 active torsions:
REMARK  status: ('A' for Active; 'I' for Inactive)
REMARK    1  A    between atoms: _1  and  _3
REMARK    2  A    between atoms: _3  and  _4
REMARK    3  A    between atoms: _3  and  _6
REMARK    4  A    between atoms: _10  and  _11
REMARK    5  A    between atoms: _16  and  _18
REMARK    6  A    between atoms: _18  and  _19
REMARK    7  A    between atoms: _18  and  _21
REMARK    8  A    between atoms: _21  and  _22
REMARK    9  A    between atoms: _25  and  _27
REMARK   10  A    between atoms: _27  and  _28
REMARK   11  A    between atoms: _27  and  _30
REMARK   12  A    between atoms: _30  and  _31
REMARK   13  A    between atoms: _31  and  _32
REMARK   14  A    between atoms: _34  and  _36
REMARK   15  A    between atoms: _36  and  _37
REMARK   16  A    between atoms: _39  and  _41
REMARK   17  A    between atoms: _41  and  _42
REMARK   18  A    between atoms: _41  and  _44
REMARK   19  A    between atoms: _44  and  _45
REMARK   20  A    between atoms: _48  and  _50
REMARK   21  A    between atoms: _50  and  _51
REMARK   22  A    between atoms: _50  and  _53
REMARK   23  A    between atoms: _53  and  _54
REMARK   24  A    between atoms: _59  and  _61
REMARK   25  A    between atoms: _61  and  _62
REMARK   26  A    between atoms: _61  and  _64
REMARK   27  A    between atoms: _64  and  _65
REMARK   28  A    between atoms: _68  and  _70
REMARK   29  A    between atoms: _70  and  _71
REMARK   30  A    between atoms: _70  and  _73
REMARK   31  A    between atoms: _73  and  _74
REMARK   32  A    between atoms: _76  and  _78
REMARK   33  A    between atoms: _78  and  _79
REMARK   34  A    between atoms: _78  and  _81
REMARK   35  A    between atoms: _81  and  _82
REMARK   36  A    between atoms: _85  and  _87
REMARK   37  A    between atoms: _87  and  _88
REMARK   38  A    between atoms: _87  and  _90
REMARK   39  A    between atoms: _90  and  _91
REMARK   40  A    between atoms: _97  and  _99
REMARK   41  A    between atoms: _99  and  _100
REMARK   42  A    between atoms: _99  and  _102
REMARK   43  A    between atoms: _105  and  _107
REMARK   44  A    between atoms: _107  and  _108
REMARK   45  A    between atoms: _107  and  _110
REMARK   46  A    between atoms: _110  and  _111
REMARK   47  A    between atoms: _117  and  _118
REMARK   48  A    between atoms: _123  and  _125
REMARK   49  A    between atoms: _125  and  _126
REMARK   50  A    between atoms: _125  and  _128
REMARK   51  A    between atoms: _128  and  _129
REMARK   52  A    between atoms: _129  and  _130
REMARK   53  A    between atoms: _132  and  _134
REMARK   54  A    between atoms: _134  and  _135
REMARK   55  A    between atoms: _134  and  _137
REMARK   56  A    between atoms: _137  and  _138
REMARK   57  A    between atoms: _138  and  _139
REMARK   58  A    between atoms: _144  and  _146
REMARK   59  A    between atoms: _146  and  _147
REMARK   60  A    between atoms: _146  and  _149
REMARK   61  A    between atoms: _149  and  _150
REMARK   62  A    between atoms: _156  and  _158
REMARK   63  A    between atoms: _158  and  _159
REMARK   64  A    between atoms: _158  and  _161
REMARK   65  A    between atoms: _161  and  _162
REMARK   66  A    between atoms: _167  and  _168
REMARK   67  A    between atoms: _170  and  _172
REMARK   68  A    between atoms: _172  and  _173
REMARK   69  A    between atoms: _172  and  _175
REMARK   70  A    between atoms: _175  and  _176
REMARK   71  A    between atoms: _181  and  _182
REMARK   72  A    between atoms: _184  and  _186
REMARK   73  A    between atoms: _186  and  _187
REMARK   74  A    between atoms: _186  and  _189
REMARK   75  A    between atoms: _189  and  _190
REMARK   76  A    between atoms: _195  and  _197
REMARK   77  A    between atoms: _197  and  _198
REMARK   78  A    between atoms: _197  and  _200
REMARK   79  A    between atoms: _200  and  _201
REMARK   80  A    between atoms: _207  and  _209
REMARK   81  A    between atoms: _209  and  _210
REMARK   82  A    between atoms: _212  and  _214
REMARK   83  A    between atoms: _214  and  _215
REMARK   84  A    between atoms: _214  and  _217
REMARK   85  A    between atoms: _220  and  _222
REMARK   86  A    between atoms: _222  and  _223
REMARK   87  A    between atoms: _222  and  _225
REMARK   88  A    between atoms: _225  and  _226
REMARK   89  A    between atoms: _228  and  _230
REMARK   90  A    between atoms: _230  and  _231
REMARK   91  A    between atoms: _230  and  _233
REMARK   92  A    between atoms: _233  and  _234
REMARK   93  A    between atoms: _237  and  _239
REMARK   94  A    between atoms: _239  and  _240
REMARK   95  A    between atoms: _239  and  _242
REMARK   96  A    between atoms: _242  and  _243
REMARK   97  A    between atoms: _246  and  _248
REMARK   98  A    between atoms: _248  and  _249
REMARK   99  A    between atoms: _248  and  _251
REMARK  100  A    between atoms: _254  and  _256
REMARK  101  A    between atoms: _256  and  _257
REMARK  102  A    between atoms: _256  and  _259
REMARK  103  A    between atoms: _259  and  _260
REMARK  104  A    between atoms: _262  and  _264
REMARK  105  A    between atoms: _264  and  _265
REMARK  106  A    between atoms: _264  and  _267
REMARK  107  A    between atoms: _267  and  _268
REMARK  108  A    between atoms: _271  and  _273
REMARK  109  A    between atoms: _273  and  _274
REMARK  110  A    between atoms: _273  and  _276
REMARK  111  A    between atoms: _278  and  _280
REMARK  112  A    between atoms: _280  and  _281
REMARK  113  A    between atoms: _280  and  _283
REMARK  114  A    between atoms: _283  and  _284
REMARK  115  A    between atoms: _290  and  _292
REMARK  116  A    between atoms: _292  and  _293
REMARK  117  A    between atoms: _295  and  _297
REMARK  118  A    between atoms: _297  and  _298
REMARK  119  A    between atoms: _297  and  _300
REMARK  120  A    between atoms: _300  and  _301
REMARK  121  A    between atoms: _304  and  _306
REMARK  122  A    between atoms: _306  and  _307
REMARK  123  A    between atoms: _306  and  _309
REMARK  124  A    between atoms: _309  and  _310
REMARK  125  A    between atoms: _310  and  _311
REMARK  126  A    between atoms: _316  and  _318
REMARK  127  A    between atoms: _318  and  _319
REMARK  128  A    between atoms: _318  and  _321
REMARK  129  A    between atoms: _321  and  _322
REMARK                            x       y       z     vdW  Elec       q    Type
REMARK                         _______ _______ _______ _____ _____    ______ ____
ROOT
ATOM      1  CA  LEU A   1      12.292 -19.774  -9.915  0.00  0.00    +0.133 C 
ENDROOT
BRANCH   1   2
ATOM      2  N   LEU A   1      12.862 -18.667 -10.748  0.00  0.00    -0.239 NA
ATOM      3  H   LEU A   1      12.886 -17.692 -10.388  0.00  0.00    +0.142 HD
ENDBRANCH   1   2
BRANCH   1   4
ATOM      4  C   LEU A   1      11.086 -20.460 -10.635  0.00  0.00    +0.224 C 
ATOM      5  O   LEU A   1      10.978 -21.677 -10.590  0.00  0.00    -0.287 OA
ENDBRANCH   1   4
BRANCH   1   6
ATOM      6  CB  LEU A   1      11.859 -19.253  -8.545  0.00  0.00    +0.025 C 
BRANCH   6   7
ATOM      7  CG  LEU A   1      12.975 -18.735  -7.614  0.00  0.00    +0.002 C 
ATOM      8  CD2 LEU A   1      12.273 -17.908  -6.458  0.00  0.00    +0.000 C 
ATOM      9  CD1 LEU A   1      13.827 -19.990  -7.133  0.00  0.00    +0.000 C 
ENDBRANCH   6   7
ENDBRANCH   1   6
TORSDOF 4
REMARK  Name = ../refined-set-2016/3guz/3guz_pocket.pdb
REMARK  129 active torsions:
REMARK  status: ('A' for Active; 'I' for Inactive)
REMARK    1  A    between atoms: _1  and  _3
REMARK    2  A    between atoms: _3  and  _4
REMARK    3  A    between atoms: _3  and  _6
REMARK    4  A    between atoms: _10  and  _11
REMARK    5  A    between atoms: _16  and  _18
REMARK    6  A    between atoms: _18  and  _19
REMARK    7  A    between atoms: _18  and  _21
REMARK    8  A    between atoms: _21  and  _22
REMARK    9  A    between atoms: _25  and  _27
REMARK   10  A    between atoms: _27  and  _28
REMARK   11  A    between atoms: _27  and  _30
REMARK   12  A    between atoms: _30  and  _31
REMARK   13  A    between atoms: _31  and  _32
REMARK   14  A    between atoms: _34  and  _36
REMARK   15  A    between atoms: _36  and  _37
REMARK   16  A    between atoms: _39  and  _41
REMARK   17  A    between atoms: _41  and  _42
REMARK   18  A    between atoms: _41  and  _44
REMARK   19  A    between atoms: _44  and  _45
REMARK   20  A    between atoms: _48  and  _50
REMARK   21  A    between atoms: _50  and  _51
REMARK   22  A    between atoms: _50  and  _53
REMARK   23  A    between atoms: _53  and  _54
REMARK   24  A    between atoms: _59  and  _61
REMARK   25  A    between atoms: _61  and  _62
REMARK   26  A    between atoms: _61  and  _64
REMARK   27  A    between atoms: _64  and  _65
REMARK   28  A    between atoms: _68  and  _70
REMARK   29  A    between atoms: _70  and  _71
REMARK   30  A    between atoms: _70  and  _73
REMARK   31  A    between atoms: _73  and  _74
REMARK   32  A    between atoms: _76  and  _78
REMARK   33  A    between atoms: _78  and  _79
REMARK   34  A    between atoms: _78  and  _81
REMARK   35  A    between atoms: _81  and  _82
REMARK   36  A    between atoms: _85  and  _87
REMARK   37  A    between atoms: _87  and  _88
REMARK   38  A    between atoms: _87  and  _90
REMARK   39  A    between atoms: _90  and  _91
REMARK   40  A    between atoms: _97  and  _99
REMARK   41  A    between atoms: _99  and  _100
REMARK   42  A    between atoms: _99  and  _102
REMARK   43  A    between atoms: _105  and  _107
REMARK   44  A    between atoms: _107  and  _108
REMARK   45  A    between atoms: _107  and  _110
REMARK   46  A    between atoms: _110  and  _111
REMARK   47  A    between atoms: _117  and  _118
REMARK   48  A    between atoms: _123  and  _125
REMARK   49  A    between atoms: _125  and  _126
REMARK   50  A    between atoms: _125  and  _128
REMARK   51  A    between atoms: _128  and  _129
REMARK   52  A    between atoms: _129  and  _130
REMARK   53  A    between atoms: _132  and  _134
REMARK   54  A    between atoms: _134  and  _135
REMARK   55  A    between atoms: _134  and  _137
REMARK   56  A    between atoms: _137  and  _138
REMARK   57  A    between atoms: _138  and  _139
REMARK   58  A    between atoms: _144  and  _146
REMARK   59  A    between atoms: _146  and  _147
REMARK   60  A    between atoms: _146  and  _149
REMARK   61  A    between atoms: _149  and  _150
REMARK   62  A    between atoms: _156  and  _158
REMARK   63  A    between atoms: _158  and  _159
REMARK   64  A    between atoms: _158  and  _161
REMARK   65  A    between atoms: _161  and  _162
REMARK   66  A    between atoms: _167  and  _168
REMARK   67  A    between atoms: _170  and  _172
REMARK   68  A    between atoms: _172  and  _173
REMARK   69  A    between atoms: _172  and  _175
REMARK   70  A    between atoms: _175  and  _176
REMARK   71  A    between atoms: _181  and  _182
REMARK   72  A    between atoms: _184  and  _186
REMARK   73  A    between atoms: _186  and  _187
REMARK   74  A    between atoms: _186  and  _189
REMARK   75  A    between atoms: _189  and  _190
REMARK   76  A    between atoms: _195  and  _197
REMARK   77  A    between atoms: _197  and  _198
REMARK   78  A    between atoms: _197  and  _200
REMARK   79  A    between atoms: _200  and  _201
REMARK   80  A    between atoms: _207  and  _209
REMARK   81  A    between atoms: _209  and  _210
REMARK   82  A    between atoms: _212  and  _214
REMARK   83  A    between atoms: _214  and  _215
REMARK   84  A    between atoms: _214  and  _217
REMARK   85  A    between atoms: _220  and  _222
REMARK   86  A    between atoms: _222  and  _223
REMARK   87  A    between atoms: _222  and  _225
REMARK   88  A    between atoms: _225  and  _226
REMARK   89  A    between atoms: _228  and  _230
REMARK   90  A    between atoms: _230  and  _231
REMARK   91  A    between atoms: _230  and  _233
REMARK   92  A    between atoms: _233  and  _234
REMARK   93  A    between atoms: _237  and  _239
REMARK   94  A    between atoms: _239  and  _240
REMARK   95  A    between atoms: _239  and  _242
REMARK   96  A    between atoms: _242  and  _243
REMARK   97  A    between atoms: _246  and  _248
REMARK   98  A    between atoms: _248  and  _249
REMARK   99  A    between atoms: _248  and  _251
REMARK  100  A    between atoms: _254  and  _256
REMARK  101  A    between atoms: _256  and  _257
REMARK  102  A    between atoms: _256  and  _259
REMARK  103  A    between atoms: _259  and  _260
REMARK  104  A    between atoms: _262  and  _264
REMARK  105  A    between atoms: _264  and  _265
REMARK  106  A    between atoms: _264  and  _267
REMARK  107  A    between atoms: _267  and  _268
REMARK  108  A    between atoms: _271  and  _273
REMARK  109  A    between atoms: _273  and  _274
REMARK  110  A    between atoms: _273  and  _276
REMARK  111  A    between atoms: _278  and  _280
REMARK  112  A    between atoms: _280  and  _281
REMARK  113  A    between atoms: _280  and  _283
REMARK  114  A    between atoms: _283  and  _284
REMARK  115  A    between atoms: _290  and  _292
REMARK  116  A    between atoms: _292  and  _293
REMARK  117  A    between atoms: _295  and  _297
REMARK  118  A    between atoms: _297  and  _298
REMARK  119  A    between atoms: _297  and  _300
REMARK  120  A    between atoms: _300  and  _301
REMARK  121  A    between atoms: _304  and  _306
REMARK  122  A    between atoms: _306  and  _307
REMARK  123  A    between atoms: _306  and  _309
REMARK  124  A    between atoms: _309  and  _310
REMARK  125  A    between atoms: _310  and  _311
REMARK  126  A    between atoms: _316  and  _318
REMARK  127  A    between atoms: _318  and  _319
REMARK  128  A    between atoms: _318  and  _321
REMARK  129  A    between atoms: _321  and  _322
REMARK                            x       y       z     vdW  Elec       q    Type
REMARK                         _______ _______ _______ _____ _____    ______ ____
ROOT
ATOM      1  CA  PHE A   2       2.678 -14.760  -2.267  0.00  0.00    +0.153 C 
ENDROOT
BRANCH   1   4
ATOM      2  C   CYS A   1       2.638 -17.172  -2.822  0.00  0.00    +0.239 C 
ATOM      3  O   CYS A   1       3.858 -17.375  -2.644  0.00  0.00    -0.274 OA
ATOM      4  N   PHE A   2       2.023 -15.982  -2.697  0.00  0.00    -0.297 N 
ATOM      5  H   PHE A   2       1.009 -15.934  -2.924  0.00  0.00    +0.150 HD
BRANCH   2   6
ATOM      6  CA  CYS A   1       1.762 -18.288  -3.271  0.00  0.00    +0.156 C 
BRANCH   6   7
ATOM      7  N   CYS A   1       2.445 -19.082  -4.326  0.00  0.00    -0.237 NA
ATOM      8  H   CYS A   1       3.269 -19.664  -4.074  0.00  0.00    +0.142 HD
ENDBRANCH   6   7
BRANCH   6   9
ATOM      9  CB  CYS A   1       1.407 -19.167  -2.076  0.00  0.00    +0.095 C 
ATOM     10  SG  CYS A   1       0.251 -20.494  -2.471  0.00  0.00    -0.080 S 
ENDBRANCH   6   9
ENDBRANCH   2   6
ENDBRANCH   1   4
BRANCH   1  11
ATOM     11  C   PHE A   2       1.800 -14.063  -1.226  0.00  0.00    +0.241 C 
ATOM     12  N   GLY A   3       2.448 -13.319  -0.350  0.00  0.00    -0.296 N 
ATOM     13  H   GLY A   3       3.487 -13.351  -0.331  0.00  0.00    +0.150 HD
ATOM     14  O   PHE A   2       0.557 -14.185  -1.248  0.00  0.00    -0.273 OA
BRANCH  12  15
ATOM     15  CA  GLY A   3       1.737 -12.439   0.607  0.00  0.00    +0.163 C 
BRANCH  15  16
ATOM     16  C   GLY A   3       1.099 -11.257  -0.096  0.00  0.00    +0.229 C 
ATOM     17  O   GLY A   3       1.576 -10.774  -1.150  0.00  0.00    -0.286 OA
ENDBRANCH  15  16
ENDBRANCH  12  15
ENDBRANCH   1  11
BRANCH   1  18
ATOM     18  CB  PHE A   2       2.935 -13.781  -3.428  0.00  0.00    +0.055 C 
BRANCH  18  19
ATOM     19  CG  PHE A   2       3.847 -14.353  -4.466  0.00  0.00    -0.020 A 
ATOM     20  CD2 PHE A   2       5.232 -14.182  -4.364  0.00  0.00    -0.004 A 
ATOM     21  CE2 PHE A   2       6.078 -14.753  -5.282  0.00  0.00    -0.000 A 
ATOM     22  CZ  PHE A   2       5.532 -15.552  -6.370  0.00  0.00    -0.000 A 
ATOM     23  CE1 PHE A   2       4.137 -15.761  -6.443  0.00  0.00    -0.000 A 
ATOM     24  CD1 PHE A   2       3.311 -15.157  -5.467  0.00  0.00    -0.004 A 
ENDBRANCH  18  19
ENDBRANCH   1  18
TORSDOF 9
REMARK  Name = ../refined-set-2016/3guz/3guz_pocket.pdb
REMARK  129 active torsions:
REMARK  status: ('A' for Active; 'I' for Inactive)
REMARK    1  A    between atoms: _1  and  _3
REMARK    2  A    between atoms: _3  and  _4
REMARK    3  A    between atoms: _3  and  _6
REMARK    4  A    between atoms: _10  and  _11
REMARK    5  A    between atoms: _16  and  _18
REMARK    6  A    between atoms: _18  and  _19
REMARK    7  A    between atoms: _18  and  _21
REMARK    8  A    between atoms: _21  and  _22
REMARK    9  A    between atoms: _25  and  _27
REMARK   10  A    between atoms: _27  and  _28
REMARK   11  A    between atoms: _27  and  _30
REMARK   12  A    between atoms: _30  and  _31
REMARK   13  A    between atoms: _31  and  _32
REMARK   14  A    between atoms: _34  and  _36
REMARK   15  A    between atoms: _36  and  _37
REMARK   16  A    between atoms: _39  and  _41
REMARK   17  A    between atoms: _41  and  _42
REMARK   18  A    between atoms: _41  and  _44
REMARK   19  A    between atoms: _44  and  _45
REMARK   20  A    between atoms: _48  and  _50
REMARK   21  A    between atoms: _50  and  _51
REMARK   22  A    between atoms: _50  and  _53
REMARK   23  A    between atoms: _53  and  _54
REMARK   24  A    between atoms: _59  and  _61
REMARK   25  A    between atoms: _61  and  _62
REMARK   26  A    between atoms: _61  and  _64
REMARK   27  A    between atoms: _64  and  _65
REMARK   28  A    between atoms: _68  and  _70
REMARK   29  A    between atoms: _70  and  _71
REMARK   30  A    between atoms: _70  and  _73
REMARK   31  A    between atoms: _73  and  _74
REMARK   32  A    between atoms: _76  and  _78
REMARK   33  A    between atoms: _78  and  _79
REMARK   34  A    between atoms: _78  and  _81
REMARK   35  A    between atoms: _81  and  _82
REMARK   36  A    between atoms: _85  and  _87
REMARK   37  A    between atoms: _87  and  _88
REMARK   38  A    between atoms: _87  and  _90
REMARK   39  A    between atoms: _90  and  _91
REMARK   40  A    between atoms: _97  and  _99
REMARK   41  A    between atoms: _99  and  _100
REMARK   42  A    between atoms: _99  and  _102
REMARK   43  A    between atoms: _105  and  _107
REMARK   44  A    between atoms: _107  and  _108
REMARK   45  A    between atoms: _107  and  _110
REMARK   46  A    between atoms: _110  and  _111
REMARK   47  A    between atoms: _117  and  _118
REMARK   48  A    between atoms: _123  and  _125
REMARK   49  A    between atoms: _125  and  _126
REMARK   50  A    between atoms: _125  and  _128
REMARK   51  A    between atoms: _128  and  _129
REMARK   52  A    between atoms: _129  and  _130
REMARK   53  A    between atoms: _132  and  _134
REMARK   54  A    between atoms: _134  and  _135
REMARK   55  A    between atoms: _134  and  _137
REMARK   56  A    between atoms: _137  and  _138
REMARK   57  A    between atoms: _138  and  _139
REMARK   58  A    between atoms: _144  and  _146
REMARK   59  A    between atoms: _146  and  _147
REMARK   60  A    between atoms: _146  and  _149
REMARK   61  A    between atoms: _149  and  _150
REMARK   62  A    between atoms: _156  and  _158
REMARK   63  A    between atoms: _158  and  _159
REMARK   64  A    between atoms: _158  and  _161
REMARK   65  A    between atoms: _161  and  _162
REMARK   66  A    between atoms: _167  and  _168
REMARK   67  A    between atoms: _170  and  _172
REMARK   68  A    between atoms: _172  and  _173
REMARK   69  A    between atoms: _172  and  _175
REMARK   70  A    between atoms: _175  and  _176
REMARK   71  A    between atoms: _181  and  _182
REMARK   72  A    between atoms: _184  and  _186
REMARK   73  A    between atoms: _186  and  _187
REMARK   74  A    between atoms: _186  and  _189
REMARK   75  A    between atoms: _189  and  _190
REMARK   76  A    between atoms: _195  and  _197
REMARK   77  A    between atoms: _197  and  _198
REMARK   78  A    between atoms: _197  and  _200
REMARK   79  A    between atoms: _200  and  _201
REMARK   80  A    between atoms: _207  and  _209
REMARK   81  A    between atoms: _209  and  _210
REMARK   82  A    between atoms: _212  and  _214
REMARK   83  A    between atoms: _214  and  _215
REMARK   84  A    between atoms: _214  and  _217
REMARK   85  A    between atoms: _220  and  _222
REMARK   86  A    between atoms: _222  and  _223
REMARK   87  A    between atoms: _222  and  _225
REMARK   88  A    between atoms: _225  and  _226
REMARK   89  A    between atoms: _228  and  _230
REMARK   90  A    between atoms: _230  and  _231
REMARK   91  A    between atoms: _230  and  _233
REMARK   92  A    between atoms: _233  and  _234
REMARK   93  A    between atoms: _237  and  _239
REMARK   94  A    between atoms: _239  and  _240
REMARK   95  A    between atoms: _239  and  _242
REMARK   96  A    between atoms: _242  and  _243
REMARK   97  A    between atoms: _246  and  _248
REMARK   98  A    between atoms: _248  and  _249
REMARK   99  A    between atoms: _248  and  _251
REMARK  100  A    between atoms: _254  and  _256
REMARK  101  A    between atoms: _256  and  _257
REMARK  102  A    between atoms: _256  and  _259
REMARK  103  A    between atoms: _259  and  _260
REMARK  104  A    between atoms: _262  and  _264
REMARK  105  A    between atoms: _264  and  _265
REMARK  106  A    between atoms: _264  and  _267
REMARK  107  A    between atoms: _267  and  _268
REMARK  108  A    between atoms: _271  and  _273
REMARK  109  A    between atoms: _273  and  _274
REMARK  110  A    between atoms: _273  and  _276
REMARK  111  A    between atoms: _278  and  _280
REMARK  112  A    between atoms: _280  and  _281
REMARK  113  A    between atoms: _280  and  _283
REMARK  114  A    between atoms: _283  and  _284
REMARK  115  A    between atoms: _290  and  _292
REMARK  116  A    between atoms: _292  and  _293
REMARK  117  A    between atoms: _295  and  _297
REMARK  118  A    between atoms: _297  and  _298
REMARK  119  A    between atoms: _297  and  _300
REMARK  120  A    between atoms: _300  and  _301
REMARK  121  A    between atoms: _304  and  _306
REMARK  122  A    between atoms: _306  and  _307
REMARK  123  A    between atoms: _306  and  _309
REMARK  124  A    between atoms: _309  and  _310
REMARK  125  A    between atoms: _310  and  _311
REMARK  126  A    between atoms: _316  and  _318
REMARK  127  A    between atoms: _318  and  _319
REMARK  128  A    between atoms: _318  and  _321
REMARK  129  A    between atoms: _321  and  _322
REMARK                            x       y       z     vdW  Elec       q    Type
REMARK                         _______ _______ _______ _____ _____    ______ ____
ROOT
ATOM      1  CA  ASP A   1       3.843  -6.426  -0.079  0.00  0.00    +0.144 C 
ENDROOT
BRANCH   1   2
ATOM      2  N   ASP A   1       3.014  -7.168   0.895  0.00  0.00    -0.239 NA
ATOM      3  H   ASP A   1       3.168  -8.187   1.033  0.00  0.00    +0.142 HD
ENDBRANCH   1   2
BRANCH   1   4
ATOM      4  C   ASP A   1       3.012  -6.329  -1.365  0.00  0.00    +0.225 C 
ATOM      5  O   ASP A   1       3.139  -7.160  -2.306  0.00  0.00    -0.287 OA
ENDBRANCH   1   4
BRANCH   1   6
ATOM      6  CB  ASP A   1       5.123  -7.182  -0.386  0.00  0.00    +0.139 C 
BRANCH   6   7
ATOM      7  CG  ASP A   1       6.119  -6.335  -1.166  0.00  0.00    +0.367 C 
ATOM      8  OD2 ASP A   1       7.325  -6.706  -1.168  0.00  0.00    -0.246 OA
ATOM      9  OD1 ASP A   1       5.694  -5.347  -1.802  0.00  0.00    -0.246 OA
ENDBRANCH   6   7
ENDBRANCH   1   6
TORSDOF 4
REMARK  Name = ../refined-set-2016/3guz/3guz_pocket.pdb
REMARK  129 active torsions:
REMARK  status: ('A' for Active; 'I' for Inactive)
REMARK    1  A    between atoms: _1  and  _3
REMARK    2  A    between atoms: _3  and  _4
REMARK    3  A    between atoms: _3  and  _6
REMARK    4  A    between atoms: _10  and  _11
REMARK    5  A    between atoms: _16  and  _18
REMARK    6  A    between atoms: _18  and  _19
REMARK    7  A    between atoms: _18  and  _21
REMARK    8  A    between atoms: _21  and  _22
REMARK    9  A    between atoms: _25  and  _27
REMARK   10  A    between atoms: _27  and  _28
REMARK   11  A    between atoms: _27  and  _30
REMARK   12  A    between atoms: _30  and  _31
REMARK   13  A    between atoms: _31  and  _32
REMARK   14  A    between atoms: _34  and  _36
REMARK   15  A    between atoms: _36  and  _37
REMARK   16  A    between atoms: _39  and  _41
REMARK   17  A    between atoms: _41  and  _42
REMARK   18  A    between atoms: _41  and  _44
REMARK   19  A    between atoms: _44  and  _45
REMARK   20  A    between atoms: _48  and  _50
REMARK   21  A    between atoms: _50  and  _51
REMARK   22  A    between atoms: _50  and  _53
REMARK   23  A    between atoms: _53  and  _54
REMARK   24  A    between atoms: _59  and  _61
REMARK   25  A    between atoms: _61  and  _62
REMARK   26  A    between atoms: _61  and  _64
REMARK   27  A    between atoms: _64  and  _65
REMARK   28  A    between atoms: _68  and  _70
REMARK   29  A    between atoms: _70  and  _71
REMARK   30  A    between atoms: _70  and  _73
REMARK   31  A    between atoms: _73  and  _74
REMARK   32  A    between atoms: _76  and  _78
REMARK   33  A    between atoms: _78  and  _79
REMARK   34  A    between atoms: _78  and  _81
REMARK   35  A    between atoms: _81  and  _82
REMARK   36  A    between atoms: _85  and  _87
REMARK   37  A    between atoms: _87  and  _88
REMARK   38  A    between atoms: _87  and  _90
REMARK   39  A    between atoms: _90  and  _91
REMARK   40  A    between atoms: _97  and  _99
REMARK   41  A    between atoms: _99  and  _100
REMARK   42  A    between atoms: _99  and  _102
REMARK   43  A    between atoms: _105  and  _107
REMARK   44  A    between atoms: _107  and  _108
REMARK   45  A    between atoms: _107  and  _110
REMARK   46  A    between atoms: _110  and  _111
REMARK   47  A    between atoms: _117  and  _118
REMARK   48  A    between atoms: _123  and  _125
REMARK   49  A    between atoms: _125  and  _126
REMARK   50  A    between atoms: _125  and  _128
REMARK   51  A    between atoms: _128  and  _129
REMARK   52  A    between atoms: _129  and  _130
REMARK   53  A    between atoms: _132  and  _134
REMARK   54  A    between atoms: _134  and  _135
REMARK   55  A    between atoms: _134  and  _137
REMARK   56  A    between atoms: _137  and  _138
REMARK   57  A    between atoms: _138  and  _139
REMARK   58  A    between atoms: _144  and  _146
REMARK   59  A    between atoms: _146  and  _147
REMARK   60  A    between atoms: _146  and  _149
REMARK   61  A    between atoms: _149  and  _150
REMARK   62  A    between atoms: _156  and  _158
REMARK   63  A    between atoms: _158  and  _159
REMARK   64  A    between atoms: _158  and  _161
REMARK   65  A    between atoms: _161  and  _162
REMARK   66  A    between atoms: _167  and  _168
REMARK   67  A    between atoms: _170  and  _172
REMARK   68  A    between atoms: _172  and  _173
REMARK   69  A    between atoms: _172  and  _175
REMARK   70  A    between atoms: _175  and  _176
REMARK   71  A    between atoms: _181  and  _182
REMARK   72  A    between atoms: _184  and  _186
REMARK   73  A    between atoms: _186  and  _187
REMARK   74  A    between atoms: _186  and  _189
REMARK   75  A    between atoms: _189  and  _190
REMARK   76  A    between atoms: _195  and  _197
REMARK   77  A    between atoms: _197  and  _198
REMARK   78  A    between atoms: _197  and  _200
REMARK   79  A    between atoms: _200  and  _201
REMARK   80  A    between atoms: _207  and  _209
REMARK   81  A    between atoms: _209  and  _210
REMARK   82  A    between atoms: _212  and  _214
REMARK   83  A    between atoms: _214  and  _215
REMARK   84  A    between atoms: _214  and  _217
REMARK   85  A    between atoms: _220  and  _222
REMARK   86  A    between atoms: _222  and  _223
REMARK   87  A    between atoms: _222  and  _225
REMARK   88  A    between atoms: _225  and  _226
REMARK   89  A    between atoms: _228  and  _230
REMARK   90  A    between atoms: _230  and  _231
REMARK   91  A    between atoms: _230  and  _233
REMARK   92  A    between atoms: _233  and  _234
REMARK   93  A    between atoms: _237  and  _239
REMARK   94  A    between atoms: _239  and  _240
REMARK   95  A    between atoms: _239  and  _242
REMARK   96  A    between atoms: _242  and  _243
REMARK   97  A    between atoms: _246  and  _248
REMARK   98  A    between atoms: _248  and  _249
REMARK   99  A    between atoms: _248  and  _251
REMARK  100  A    between atoms: _254  and  _256
REMARK  101  A    between atoms: _256  and  _257
REMARK  102  A    between atoms: _256  and  _259
REMARK  103  A    between atoms: _259  and  _260
REMARK  104  A    between atoms: _262  and  _264
REMARK  105  A    between atoms: _264  and  _265
REMARK  106  A    between atoms: _264  and  _267
REMARK  107  A    between atoms: _267  and  _268
REMARK  108  A    between atoms: _271  and  _273
REMARK  109  A    between atoms: _273  and  _274
REMARK  110  A    between atoms: _273  and  _276
REMARK  111  A    between atoms: _278  and  _280
REMARK  112  A    between atoms: _280  and  _281
REMARK  113  A    between atoms: _280  and  _283
REMARK  114  A    between atoms: _283  and  _284
REMARK  115  A    between atoms: _290  and  _292
REMARK  116  A    between atoms: _292  and  _293
REMARK  117  A    between atoms: _295  and  _297
REMARK  118  A    between atoms: _297  and  _298
REMARK  119  A    between atoms: _297  and  _300
REMARK  120  A    between atoms: _300  and  _301
REMARK  121  A    between atoms: _304  and  _306
REMARK  122  A    between atoms: _306  and  _307
REMARK  123  A    between atoms: _306  and  _309
REMARK  124  A    between atoms: _309  and  _310
REMARK  125  A    between atoms: _310  and  _311
REMARK  126  A    between atoms: _316  and  _318
REMARK  127  A    between atoms: _318  and  _319
REMARK  128  A    between atoms: _318  and  _321
REMARK  129  A    between atoms: _321  and  _322
REMARK                            x       y       z     vdW  Elec       q    Type
REMARK                         _______ _______ _______ _____ _____    ______ ____
ROOT
ATOM      1  CB  GLN A   1       6.062  -7.824  -4.070  0.00  0.00    +0.035 C 
ENDROOT
BRANCH   1   2
ATOM      2  CA  GLN A   1       5.316  -7.106  -5.206  0.00  0.00    +0.134 C 
BRANCH   2   3
ATOM      3  N   GLN A   1       4.701  -5.879  -4.710  0.00  0.00    -0.239 NA
ATOM      4  H   GLN A   1       4.715  -5.664  -3.693  0.00  0.00    +0.142 HD
ENDBRANCH   2   3
BRANCH   2   5
ATOM      5  C   GLN A   1       4.243  -8.018  -5.780  0.00  0.00    +0.224 C 
ATOM      6  O   GLN A   1       4.447  -8.565  -6.831  0.00  0.00    -0.287 OA
ENDBRANCH   2   5
ENDBRANCH   1   2
BRANCH   1   7
ATOM      7  CG  GLN A   1       6.357  -9.236  -4.414  0.00  0.00    +0.087 C 
BRANCH   7   8
ATOM      8  CD  GLN A   1       7.311  -9.838  -3.396  0.00  0.00    +0.219 C 
ATOM      9  OE1 GLN A   1       6.888 -10.614  -2.486  0.00  0.00    -0.275 OA
ATOM     10  NE2 GLN A   1       8.558  -9.571  -3.567  0.00  0.00    -0.329 N 
ATOM     11 HE21 GLN A   1       9.272  -9.999  -2.943  0.00  0.00    +0.145 HD
ATOM     12 HE22 GLN A   1       8.852  -8.927  -4.329  0.00  0.00    +0.145 HD
ENDBRANCH   7   8
ENDBRANCH   1   7
TORSDOF 5
REMARK  Name = ../refined-set-2016/3guz/3guz_pocket.pdb
REMARK  129 active torsions:
REMARK  status: ('A' for Active; 'I' for Inactive)
REMARK    1  A    between atoms: _1  and  _3
REMARK    2  A    between atoms: _3  and  _4
REMARK    3  A    between atoms: _3  and  _6
REMARK    4  A    between atoms: _10  and  _11
REMARK    5  A    between atoms: _16  and  _18
REMARK    6  A    between atoms: _18  and  _19
REMARK    7  A    between atoms: _18  and  _21
REMARK    8  A    between atoms: _21  and  _22
REMARK    9  A    between atoms: _25  and  _27
REMARK   10  A    between atoms: _27  and  _28
REMARK   11  A    between atoms: _27  and  _30
REMARK   12  A    between atoms: _30  and  _31
REMARK   13  A    between atoms: _31  and  _32
REMARK   14  A    between atoms: _34  and  _36
REMARK   15  A    between atoms: _36  and  _37
REMARK   16  A    between atoms: _39  and  _41
REMARK   17  A    between atoms: _41  and  _42
REMARK   18  A    between atoms: _41  and  _44
REMARK   19  A    between atoms: _44  and  _45
REMARK   20  A    between atoms: _48  and  _50
REMARK   21  A    between atoms: _50  and  _51
REMARK   22  A    between atoms: _50  and  _53
REMARK   23  A    between atoms: _53  and  _54
REMARK   24  A    between atoms: _59  and  _61
REMARK   25  A    between atoms: _61  and  _62
REMARK   26  A    between atoms: _61  and  _64
REMARK   27  A    between atoms: _64  and  _65
REMARK   28  A    between atoms: _68  and  _70
REMARK   29  A    between atoms: _70  and  _71
REMARK   30  A    between atoms: _70  and  _73
REMARK   31  A    between atoms: _73  and  _74
REMARK   32  A    between atoms: _76  and  _78
REMARK   33  A    between atoms: _78  and  _79
REMARK   34  A    between atoms: _78  and  _81
REMARK   35  A    between atoms: _81  and  _82
REMARK   36  A    between atoms: _85  and  _87
REMARK   37  A    between atoms: _87  and  _88
REMARK   38  A    between atoms: _87  and  _90
REMARK   39  A    between atoms: _90  and  _91
REMARK   40  A    between atoms: _97  and  _99
REMARK   41  A    between atoms: _99  and  _100
REMARK   42  A    between atoms: _99  and  _102
REMARK   43  A    between atoms: _105  and  _107
REMARK   44  A    between atoms: _107  and  _108
REMARK   45  A    between atoms: _107  and  _110
REMARK   46  A    between atoms: _110  and  _111
REMARK   47  A    between atoms: _117  and  _118
REMARK   48  A    between atoms: _123  and  _125
REMARK   49  A    between atoms: _125  and  _126
REMARK   50  A    between atoms: _125  and  _128
REMARK   51  A    between atoms: _128  and  _129
REMARK   52  A    between atoms: _129  and  _130
REMARK   53  A    between atoms: _132  and  _134
REMARK   54  A    between atoms: _134  and  _135
REMARK   55  A    between atoms: _134  and  _137
REMARK   56  A    between atoms: _137  and  _138
REMARK   57  A    between atoms: _138  and  _139
REMARK   58  A    between atoms: _144  and  _146
REMARK   59  A    between atoms: _146  and  _147
REMARK   60  A    between atoms: _146  and  _149
REMARK   61  A    between atoms: _149  and  _150
REMARK   62  A    between atoms: _156  and  _158
REMARK   63  A    between atoms: _158  and  _159
REMARK   64  A    between atoms: _158  and  _161
REMARK   65  A    between atoms: _161  and  _162
REMARK   66  A    between atoms: _167  and  _168
REMARK   67  A    between atoms: _170  and  _172
REMARK   68  A    between atoms: _172  and  _173
REMARK   69  A    between atoms: _172  and  _175
REMARK   70  A    between atoms: _175  and  _176
REMARK   71  A    between atoms: _181  and  _182
REMARK   72  A    between atoms: _184  and  _186
REMARK   73  A    between atoms: _186  and  _187
REMARK   74  A    between atoms: _186  and  _189
REMARK   75  A    between atoms: _189  and  _190
REMARK   76  A    between atoms: _195  and  _197
REMARK   77  A    between atoms: _197  and  _198
REMARK   78  A    between atoms: _197  and  _200
REMARK   79  A    between atoms: _200  and  _201
REMARK   80  A    between atoms: _207  and  _209
REMARK   81  A    between atoms: _209  and  _210
REMARK   82  A    between atoms: _212  and  _214
REMARK   83  A    between atoms: _214  and  _215
REMARK   84  A    between atoms: _214  and  _217
REMARK   85  A    between atoms: _220  and  _222
REMARK   86  A    between atoms: _222  and  _223
REMARK   87  A    between atoms: _222  and  _225
REMARK   88  A    between atoms: _225  and  _226
REMARK   89  A    between atoms: _228  and  _230
REMARK   90  A    between atoms: _230  and  _231
REMARK   91  A    between atoms: _230  and  _233
REMARK   92  A    between atoms: _233  and  _234
REMARK   93  A    between atoms: _237  and  _239
REMARK   94  A    between atoms: _239  and  _240
REMARK   95  A    between atoms: _239  and  _242
REMARK   96  A    between atoms: _242  and  _243
REMARK   97  A    between atoms: _246  and  _248
REMARK   98  A    between atoms: _248  and  _249
REMARK   99  A    between atoms: _248  and  _251
REMARK  100  A    between atoms: _254  and  _256
REMARK  101  A    between atoms: _256  and  _257
REMARK  102  A    between atoms: _256  and  _259
REMARK  103  A    between atoms: _259  and  _260
REMARK  104  A    between atoms: _262  and  _264
REMARK  105  A    between atoms: _264  and  _265
REMARK  106  A    between atoms: _264  and  _267
REMARK  107  A    between atoms: _267  and  _268
REMARK  108  A    between atoms: _271  and  _273
REMARK  109  A    between atoms: _273  and  _274
REMARK  110  A    between atoms: _273  and  _276
REMARK  111  A    between atoms: _278  and  _280
REMARK  112  A    between atoms: _280  and  _281
REMARK  113  A    between atoms: _280  and  _283
REMARK  114  A    between atoms: _283  and  _284
REMARK  115  A    between atoms: _290  and  _292
REMARK  116  A    between atoms: _292  and  _293
REMARK  117  A    between atoms: _295  and  _297
REMARK  118  A    between atoms: _297  and  _298
REMARK  119  A    between atoms: _297  and  _300
REMARK  120  A    between atoms: _300  and  _301
REMARK  121  A    between atoms: _304  and  _306
REMARK  122  A    between atoms: _306  and  _307
REMARK  123  A    between atoms: _306  and  _309
REMARK  124  A    between atoms: _309  and  _310
REMARK  125  A    between atoms: _310  and  _311
REMARK  126  A    between atoms: _316  and  _318
REMARK  127  A    between atoms: _318  and  _319
REMARK  128  A    between atoms: _318  and  _321
REMARK  129  A    between atoms: _321  and  _322
REMARK                            x       y       z     vdW  Elec       q    Type
REMARK                         _______ _______ _______ _____ _____    ______ ____
ROOT
ATOM      1  CA  ILE A   1       4.177 -10.720 -10.127  0.00  0.00    +0.133 C 
ENDROOT
BRANCH   1   2
ATOM      2  N   ILE A   1       4.161  -9.321  -9.690  0.00  0.00    -0.239 NA
ATOM      3  H   ILE A   1       4.062  -9.083  -8.683  0.00  0.00    +0.142 HD
ENDBRANCH   1   2
BRANCH   1   4
ATOM      4  CB  ILE A   1       4.345 -11.647  -8.905  0.00  0.00    +0.023 C 
ATOM      5  CG2 ILE A   1       4.163 -13.169  -9.311  0.00  0.00    +0.002 C 
BRANCH   4   6
ATOM      6  CG1 ILE A   1       5.717 -11.415  -8.259  0.00  0.00    +0.002 C 
ATOM      7  CD1 ILE A   1       6.955 -11.485  -9.235  0.00  0.00    +0.000 C 
ENDBRANCH   4   6
ENDBRANCH   1   4
BRANCH   1   8
ATOM      8  C   ILE A   1       2.916 -11.075 -10.934  0.00  0.00    +0.224 C 
ATOM      9  O   ILE A   1       3.006 -11.765 -11.936  0.00  0.00    -0.287 OA
ENDBRANCH   1   8
TORSDOF 4
REMARK  Name = ../refined-set-2016/3guz/3guz_pocket.pdb
REMARK  129 active torsions:
REMARK  status: ('A' for Active; 'I' for Inactive)
REMARK    1  A    between atoms: _1  and  _3
REMARK    2  A    between atoms: _3  and  _4
REMARK    3  A    between atoms: _3  and  _6
REMARK    4  A    between atoms: _10  and  _11
REMARK    5  A    between atoms: _16  and  _18
REMARK    6  A    between atoms: _18  and  _19
REMARK    7  A    between atoms: _18  and  _21
REMARK    8  A    between atoms: _21  and  _22
REMARK    9  A    between atoms: _25  and  _27
REMARK   10  A    between atoms: _27  and  _28
REMARK   11  A    between atoms: _27  and  _30
REMARK   12  A    between atoms: _30  and  _31
REMARK   13  A    between atoms: _31  and  _32
REMARK   14  A    between atoms: _34  and  _36
REMARK   15  A    between atoms: _36  and  _37
REMARK   16  A    between atoms: _39  and  _41
REMARK   17  A    between atoms: _41  and  _42
REMARK   18  A    between atoms: _41  and  _44
REMARK   19  A    between atoms: _44  and  _45
REMARK   20  A    between atoms: _48  and  _50
REMARK   21  A    between atoms: _50  and  _51
REMARK   22  A    between atoms: _50  and  _53
REMARK   23  A    between atoms: _53  and  _54
REMARK   24  A    between atoms: _59  and  _61
REMARK   25  A    between atoms: _61  and  _62
REMARK   26  A    between atoms: _61  and  _64
REMARK   27  A    between atoms: _64  and  _65
REMARK   28  A    between atoms: _68  and  _70
REMARK   29  A    between atoms: _70  and  _71
REMARK   30  A    between atoms: _70  and  _73
REMARK   31  A    between atoms: _73  and  _74
REMARK   32  A    between atoms: _76  and  _78
REMARK   33  A    between atoms: _78  and  _79
REMARK   34  A    between atoms: _78  and  _81
REMARK   35  A    between atoms: _81  and  _82
REMARK   36  A    between atoms: _85  and  _87
REMARK   37  A    between atoms: _87  and  _88
REMARK   38  A    between atoms: _87  and  _90
REMARK   39  A    between atoms: _90  and  _91
REMARK   40  A    between atoms: _97  and  _99
REMARK   41  A    between atoms: _99  and  _100
REMARK   42  A    between atoms: _99  and  _102
REMARK   43  A    between atoms: _105  and  _107
REMARK   44  A    between atoms: _107  and  _108
REMARK   45  A    between atoms: _107  and  _110
REMARK   46  A    between atoms: _110  and  _111
REMARK   47  A    between atoms: _117  and  _118
REMARK   48  A    between atoms: _123  and  _125
REMARK   49  A    between atoms: _125  and  _126
REMARK   50  A    between atoms: _125  and  _128
REMARK   51  A    between atoms: _128  and  _129
REMARK   52  A    between atoms: _129  and  _130
REMARK   53  A    between atoms: _132  and  _134
REMARK   54  A    between atoms: _134  and  _135
REMARK   55  A    between atoms: _134  and  _137
REMARK   56  A    between atoms: _137  and  _138
REMARK   57  A    between atoms: _138  and  _139
REMARK   58  A    between atoms: _144  and  _146
REMARK   59  A    between atoms: _146  and  _147
REMARK   60  A    between atoms: _146  and  _149
REMARK   61  A    between atoms: _149  and  _150
REMARK   62  A    between atoms: _156  and  _158
REMARK   63  A    between atoms: _158  and  _159
REMARK   64  A    between atoms: _158  and  _161
REMARK   65  A    between atoms: _161  and  _162
REMARK   66  A    between atoms: _167  and  _168
REMARK   67  A    between atoms: _170  and  _172
REMARK   68  A    between atoms: _172  and  _173
REMARK   69  A    between atoms: _172  and  _175
REMARK   70  A    between atoms: _175  and  _176
REMARK   71  A    between atoms: _181  and  _182
REMARK   72  A    between atoms: _184  and  _186
REMARK   73  A    between atoms: _186  and  _187
REMARK   74  A    between atoms: _186  and  _189
REMARK   75  A    between atoms: _189  and  _190
REMARK   76  A    between atoms: _195  and  _197
REMARK   77  A    between atoms: _197  and  _198
REMARK   78  A    between atoms: _197  and  _200
REMARK   79  A    between atoms: _200  and  _201
REMARK   80  A    between atoms: _207  and  _209
REMARK   81  A    between atoms: _209  and  _210
REMARK   82  A    between atoms: _212  and  _214
REMARK   83  A    between atoms: _214  and  _215
REMARK   84  A    between atoms: _214  and  _217
REMARK   85  A    between atoms: _220  and  _222
REMARK   86  A    between atoms: _222  and  _223
REMARK   87  A    between atoms: _222  and  _225
REMARK   88  A    between atoms: _225  and  _226
REMARK   89  A    between atoms: _228  and  _230
REMARK   90  A    between atoms: _230  and  _231
REMARK   91  A    between atoms: _230  and  _233
REMARK   92  A    between atoms: _233  and  _234
REMARK   93  A    between atoms: _237  and  _239
REMARK   94  A    between atoms: _239  and  _240
REMARK   95  A    between atoms: _239  and  _242
REMARK   96  A    between atoms: _242  and  _243
REMARK   97  A    between atoms: _246  and  _248
REMARK   98  A    between atoms: _248  and  _249
REMARK   99  A    between atoms: _248  and  _251
REMARK  100  A    between atoms: _254  and  _256
REMARK  101  A    between atoms: _256  and  _257
REMARK  102  A    between atoms: _256  and  _259
REMARK  103  A    between atoms: _259  and  _260
REMARK  104  A    between atoms: _262  and  _264
REMARK  105  A    between atoms: _264  and  _265
REMARK  106  A    between atoms: _264  and  _267
REMARK  107  A    between atoms: _267  and  _268
REMARK  108  A    between atoms: _271  and  _273
REMARK  109  A    between atoms: _273  and  _274
REMARK  110  A    between atoms: _273  and  _276
REMARK  111  A    between atoms: _278  and  _280
REMARK  112  A    between atoms: _280  and  _281
REMARK  113  A    between atoms: _280  and  _283
REMARK  114  A    between atoms: _283  and  _284
REMARK  115  A    between atoms: _290  and  _292
REMARK  116  A    between atoms: _292  and  _293
REMARK  117  A    between atoms: _295  and  _297
REMARK  118  A    between atoms: _297  and  _298
REMARK  119  A    between atoms: _297  and  _300
REMARK  120  A    between atoms: _300  and  _301
REMARK  121  A    between atoms: _304  and  _306
REMARK  122  A    between atoms: _306  and  _307
REMARK  123  A    between atoms: _306  and  _309
REMARK  124  A    between atoms: _309  and  _310
REMARK  125  A    between atoms: _310  and  _311
REMARK  126  A    between atoms: _316  and  _318
REMARK  127  A    between atoms: _318  and  _319
REMARK  128  A    between atoms: _318  and  _321
REMARK  129  A    between atoms: _321  and  _322
REMARK                            x       y       z     vdW  Elec       q    Type
REMARK                         _______ _______ _______ _____ _____    ______ ____
ROOT
ATOM      1  O   HOH     1      14.597 -15.342  -3.834  0.00  0.00    +0.000 OA
ENDROOT
TORSDOF 0
REMARK  Name = ../refined-set-2016/3guz/3guz_pocket.pdb
REMARK  129 active torsions:
REMARK  status: ('A' for Active; 'I' for Inactive)
REMARK    1  A    between atoms: _1  and  _3
REMARK    2  A    between atoms: _3  and  _4
REMARK    3  A    between atoms: _3  and  _6
REMARK    4  A    between atoms: _10  and  _11
REMARK    5  A    between atoms: _16  and  _18
REMARK    6  A    between atoms: _18  and  _19
REMARK    7  A    between atoms: _18  and  _21
REMARK    8  A    between atoms: _21  and  _22
REMARK    9  A    between atoms: _25  and  _27
REMARK   10  A    between atoms: _27  and  _28
REMARK   11  A    between atoms: _27  and  _30
REMARK   12  A    between atoms: _30  and  _31
REMARK   13  A    between atoms: _31  and  _32
REMARK   14  A    between atoms: _34  and  _36
REMARK   15  A    between atoms: _36  and  _37
REMARK   16  A    between atoms: _39  and  _41
REMARK   17  A    between atoms: _41  and  _42
REMARK   18  A    between atoms: _41  and  _44
REMARK   19  A    between atoms: _44  and  _45
REMARK   20  A    between atoms: _48  and  _50
REMARK   21  A    between atoms: _50  and  _51
REMARK   22  A    between atoms: _50  and  _53
REMARK   23  A    between atoms: _53  and  _54
REMARK   24  A    between atoms: _59  and  _61
REMARK   25  A    between atoms: _61  and  _62
REMARK   26  A    between atoms: _61  and  _64
REMARK   27  A    between atoms: _64  and  _65
REMARK   28  A    between atoms: _68  and  _70
REMARK   29  A    between atoms: _70  and  _71
REMARK   30  A    between atoms: _70  and  _73
REMARK   31  A    between atoms: _73  and  _74
REMARK   32  A    between atoms: _76  and  _78
REMARK   33  A    between atoms: _78  and  _79
REMARK   34  A    between atoms: _78  and  _81
REMARK   35  A    between atoms: _81  and  _82
REMARK   36  A    between atoms: _85  and  _87
REMARK   37  A    between atoms: _87  and  _88
REMARK   38  A    between atoms: _87  and  _90
REMARK   39  A    between atoms: _90  and  _91
REMARK   40  A    between atoms: _97  and  _99
REMARK   41  A    between atoms: _99  and  _100
REMARK   42  A    between atoms: _99  and  _102
REMARK   43  A    between atoms: _105  and  _107
REMARK   44  A    between atoms: _107  and  _108
REMARK   45  A    between atoms: _107  and  _110
REMARK   46  A    between atoms: _110  and  _111
REMARK   47  A    between atoms: _117  and  _118
REMARK   48  A    between atoms: _123  and  _125
REMARK   49  A    between atoms: _125  and  _126
REMARK   50  A    between atoms: _125  and  _128
REMARK   51  A    between atoms: _128  and  _129
REMARK   52  A    between atoms: _129  and  _130
REMARK   53  A    between atoms: _132  and  _134
REMARK   54  A    between atoms: _134  and  _135
REMARK   55  A    between atoms: _134  and  _137
REMARK   56  A    between atoms: _137  and  _138
REMARK   57  A    between atoms: _138  and  _139
REMARK   58  A    between atoms: _144  and  _146
REMARK   59  A    between atoms: _146  and  _147
REMARK   60  A    between atoms: _146  and  _149
REMARK   61  A    between atoms: _149  and  _150
REMARK   62  A    between atoms: _156  and  _158
REMARK   63  A    between atoms: _158  and  _159
REMARK   64  A    between atoms: _158  and  _161
REMARK   65  A    between atoms: _161  and  _162
REMARK   66  A    between atoms: _167  and  _168
REMARK   67  A    between atoms: _170  and  _172
REMARK   68  A    between atoms: _172  and  _173
REMARK   69  A    between atoms: _172  and  _175
REMARK   70  A    between atoms: _175  and  _176
REMARK   71  A    between atoms: _181  and  _182
REMARK   72  A    between atoms: _184  and  _186
REMARK   73  A    between atoms: _186  and  _187
REMARK   74  A    between atoms: _186  and  _189
REMARK   75  A    between atoms: _189  and  _190
REMARK   76  A    between atoms: _195  and  _197
REMARK   77  A    between atoms: _197  and  _198
REMARK   78  A    between atoms: _197  and  _200
REMARK   79  A    between atoms: _200  and  _201
REMARK   80  A    between atoms: _207  and  _209
REMARK   81  A    between atoms: _209  and  _210
REMARK   82  A    between atoms: _212  and  _214
REMARK   83  A    between atoms: _214  and  _215
REMARK   84  A    between atoms: _214  and  _217
REMARK   85  A    between atoms: _220  and  _222
REMARK   86  A    between atoms: _222  and  _223
REMARK   87  A    between atoms: _222  and  _225
REMARK   88  A    between atoms: _225  and  _226
REMARK   89  A    between atoms: _228  and  _230
REMARK   90  A    between atoms: _230  and  _231
REMARK   91  A    between atoms: _230  and  _233
REMARK   92  A    between atoms: _233  and  _234
REMARK   93  A    between atoms: _237  and  _239
REMARK   94  A    between atoms: _239  and  _240
REMARK   95  A    between atoms: _239  and  _242
REMARK   96  A    between atoms: _242  and  _243
REMARK   97  A    between atoms: _246  and  _248
REMARK   98  A    between atoms: _248  and  _249
REMARK   99  A    between atoms: _248  and  _251
REMARK  100  A    between atoms: _254  and  _256
REMARK  101  A    between atoms: _256  and  _257
REMARK  102  A    between atoms: _256  and  _259
REMARK  103  A    between atoms: _259  and  _260
REMARK  104  A    between atoms: _262  and  _264
REMARK  105  A    between atoms: _264  and  _265
REMARK  106  A    between atoms: _264  and  _267
REMARK  107  A    between atoms: _267  and  _268
REMARK  108  A    between atoms: _271  and  _273
REMARK  109  A    between atoms: _273  and  _274
REMARK  110  A    between atoms: _273  and  _276
REMARK  111  A    between atoms: _278  and  _280
REMARK  112  A    between atoms: _280  and  _281
REMARK  113  A    between atoms: _280  and  _283
REMARK  114  A    between atoms: _283  and  _284
REMARK  115  A    between atoms: _290  and  _292
REMARK  116  A    between atoms: _292  and  _293
REMARK  117  A    between atoms: _295  and  _297
REMARK  118  A    between atoms: _297  and  _298
REMARK  119  A    between atoms: _297  and  _300
REMARK  120  A    between atoms: _300  and  _301
REMARK  121  A    between atoms: _304  and  _306
REMARK  122  A    between atoms: _306  and  _307
REMARK  123  A    between atoms: _306  and  _309
REMARK  124  A    between atoms: _309  and  _310
REMARK  125  A    between atoms: _310  and  _311
REMARK  126  A    between atoms: _316  and  _318
REMARK  127  A    between atoms: _318  and  _319
REMARK  128  A    between atoms: _318  and  _321
REMARK  129  A    between atoms: _321  and  _322
REMARK                            x       y       z     vdW  Elec       q    Type
REMARK                         _______ _______ _______ _____ _____    ______ ____
ROOT
ATOM      1  O   HOH     1       6.031  -9.157   2.413  0.00  0.00    +0.000 OA
ENDROOT
TORSDOF 0
REMARK  Name = ../refined-set-2016/3guz/3guz_pocket.pdb
REMARK  129 active torsions:
REMARK  status: ('A' for Active; 'I' for Inactive)
REMARK    1  A    between atoms: _1  and  _3
REMARK    2  A    between atoms: _3  and  _4
REMARK    3  A    between atoms: _3  and  _6
REMARK    4  A    between atoms: _10  and  _11
REMARK    5  A    between atoms: _16  and  _18
REMARK    6  A    between atoms: _18  and  _19
REMARK    7  A    between atoms: _18  and  _21
REMARK    8  A    between atoms: _21  and  _22
REMARK    9  A    between atoms: _25  and  _27
REMARK   10  A    between atoms: _27  and  _28
REMARK   11  A    between atoms: _27  and  _30
REMARK   12  A    between atoms: _30  and  _31
REMARK   13  A    between atoms: _31  and  _32
REMARK   14  A    between atoms: _34  and  _36
REMARK   15  A    between atoms: _36  and  _37
REMARK   16  A    between atoms: _39  and  _41
REMARK   17  A    between atoms: _41  and  _42
REMARK   18  A    between atoms: _41  and  _44
REMARK   19  A    between atoms: _44  and  _45
REMARK   20  A    between atoms: _48  and  _50
REMARK   21  A    between atoms: _50  and  _51
REMARK   22  A    between atoms: _50  and  _53
REMARK   23  A    between atoms: _53  and  _54
REMARK   24  A    between atoms: _59  and  _61
REMARK   25  A    between atoms: _61  and  _62
REMARK   26  A    between atoms: _61  and  _64
REMARK   27  A    between atoms: _64  and  _65
REMARK   28  A    between atoms: _68  and  _70
REMARK   29  A    between atoms: _70  and  _71
REMARK   30  A    between atoms: _70  and  _73
REMARK   31  A    between atoms: _73  and  _74
REMARK   32  A    between atoms: _76  and  _78
REMARK   33  A    between atoms: _78  and  _79
REMARK   34  A    between atoms: _78  and  _81
REMARK   35  A    between atoms: _81  and  _82
REMARK   36  A    between atoms: _85  and  _87
REMARK   37  A    between atoms: _87  and  _88
REMARK   38  A    between atoms: _87  and  _90
REMARK   39  A    between atoms: _90  and  _91
REMARK   40  A    between atoms: _97  and  _99
REMARK   41  A    between atoms: _99  and  _100
REMARK   42  A    between atoms: _99  and  _102
REMARK   43  A    between atoms: _105  and  _107
REMARK   44  A    between atoms: _107  and  _108
REMARK   45  A    between atoms: _107  and  _110
REMARK   46  A    between atoms: _110  and  _111
REMARK   47  A    between atoms: _117  and  _118
REMARK   48  A    between atoms: _123  and  _125
REMARK   49  A    between atoms: _125  and  _126
REMARK   50  A    between atoms: _125  and  _128
REMARK   51  A    between atoms: _128  and  _129
REMARK   52  A    between atoms: _129  and  _130
REMARK   53  A    between atoms: _132  and  _134
REMARK   54  A    between atoms: _134  and  _135
REMARK   55  A    between atoms: _134  and  _137
REMARK   56  A    between atoms: _137  and  _138
REMARK   57  A    between atoms: _138  and  _139
REMARK   58  A    between atoms: _144  and  _146
REMARK   59  A    between atoms: _146  and  _147
REMARK   60  A    between atoms: _146  and  _149
REMARK   61  A    between atoms: _149  and  _150
REMARK   62  A    between atoms: _156  and  _158
REMARK   63  A    between atoms: _158  and  _159
REMARK   64  A    between atoms: _158  and  _161
REMARK   65  A    between atoms: _161  and  _162
REMARK   66  A    between atoms: _167  and  _168
REMARK   67  A    between atoms: _170  and  _172
REMARK   68  A    between atoms: _172  and  _173
REMARK   69  A    between atoms: _172  and  _175
REMARK   70  A    between atoms: _175  and  _176
REMARK   71  A    between atoms: _181  and  _182
REMARK   72  A    between atoms: _184  and  _186
REMARK   73  A    between atoms: _186  and  _187
REMARK   74  A    between atoms: _186  and  _189
REMARK   75  A    between atoms: _189  and  _190
REMARK   76  A    between atoms: _195  and  _197
REMARK   77  A    between atoms: _197  and  _198
REMARK   78  A    between atoms: _197  and  _200
REMARK   79  A    between atoms: _200  and  _201
REMARK   80  A    between atoms: _207  and  _209
REMARK   81  A    between atoms: _209  and  _210
REMARK   82  A    between atoms: _212  and  _214
REMARK   83  A    between atoms: _214  and  _215
REMARK   84  A    between atoms: _214  and  _217
REMARK   85  A    between atoms: _220  and  _222
REMARK   86  A    between atoms: _222  and  _223
REMARK   87  A    between atoms: _222  and  _225
REMARK   88  A    between atoms: _225  and  _226
REMARK   89  A    between atoms: _228  and  _230
REMARK   90  A    between atoms: _230  and  _231
REMARK   91  A    between atoms: _230  and  _233
REMARK   92  A    between atoms: _233  and  _234
REMARK   93  A    between atoms: _237  and  _239
REMARK   94  A    between atoms: _239  and  _240
REMARK   95  A    between atoms: _239  and  _242
REMARK   96  A    between atoms: _242  and  _243
REMARK   97  A    between atoms: _246  and  _248
REMARK   98  A    between atoms: _248  and  _249
REMARK   99  A    between atoms: _248  and  _251
REMARK  100  A    between atoms: _254  and  _256
REMARK  101  A    between atoms: _256  and  _257
REMARK  102  A    between atoms: _256  and  _259
REMARK  103  A    between atoms: _259  and  _260
REMARK  104  A    between atoms: _262  and  _264
REMARK  105  A    between atoms: _264  and  _265
REMARK  106  A    between atoms: _264  and  _267
REMARK  107  A    between atoms: _267  and  _268
REMARK  108  A    between atoms: _271  and  _273
REMARK  109  A    between atoms: _273  and  _274
REMARK  110  A    between atoms: _273  and  _276
REMARK  111  A    between atoms: _278  and  _280
REMARK  112  A    between atoms: _280  and  _281
REMARK  113  A    between atoms: _280  and  _283
REMARK  114  A    between atoms: _283  and  _284
REMARK  115  A    between atoms: _290  and  _292
REMARK  116  A    between atoms: _292  and  _293
REMARK  117  A    between atoms: _295  and  _297
REMARK  118  A    between atoms: _297  and  _298
REMARK  119  A    between atoms: _297  and  _300
REMARK  120  A    between atoms: _300  and  _301
REMARK  121  A    between atoms: _304  and  _306
REMARK  122  A    between atoms: _306  and  _307
REMARK  123  A    between atoms: _306  and  _309
REMARK  124  A    between atoms: _309  and  _310
REMARK  125  A    between atoms: _310  and  _311
REMARK  126  A    between atoms: _316  and  _318
REMARK  127  A    between atoms: _318  and  _319
REMARK  128  A    between atoms: _318  and  _321
REMARK  129  A    between atoms: _321  and  _322
REMARK                            x       y       z     vdW  Elec       q    Type
REMARK                         _______ _______ _______ _____ _____    ______ ____
ROOT
ATOM      1  O   HOH     1       3.958 -10.151  -2.193  0.00  0.00    +0.000 OA
ENDROOT
TORSDOF 0
REMARK  Name = ../refined-set-2016/3guz/3guz_pocket.pdb
REMARK  129 active torsions:
REMARK  status: ('A' for Active; 'I' for Inactive)
REMARK    1  A    between atoms: _1  and  _3
REMARK    2  A    between atoms: _3  and  _4
REMARK    3  A    between atoms: _3  and  _6
REMARK    4  A    between atoms: _10  and  _11
REMARK    5  A    between atoms: _16  and  _18
REMARK    6  A    between atoms: _18  and  _19
REMARK    7  A    between atoms: _18  and  _21
REMARK    8  A    between atoms: _21  and  _22
REMARK    9  A    between atoms: _25  and  _27
REMARK   10  A    between atoms: _27  and  _28
REMARK   11  A    between atoms: _27  and  _30
REMARK   12  A    between atoms: _30  and  _31
REMARK   13  A    between atoms: _31  and  _32
REMARK   14  A    between atoms: _34  and  _36
REMARK   15  A    between atoms: _36  and  _37
REMARK   16  A    between atoms: _39  and  _41
REMARK   17  A    between atoms: _41  and  _42
REMARK   18  A    between atoms: _41  and  _44
REMARK   19  A    between atoms: _44  and  _45
REMARK   20  A    between atoms: _48  and  _50
REMARK   21  A    between atoms: _50  and  _51
REMARK   22  A    between atoms: _50  and  _53
REMARK   23  A    between atoms: _53  and  _54
REMARK   24  A    between atoms: _59  and  _61
REMARK   25  A    between atoms: _61  and  _62
REMARK   26  A    between atoms: _61  and  _64
REMARK   27  A    between atoms: _64  and  _65
REMARK   28  A    between atoms: _68  and  _70
REMARK   29  A    between atoms: _70  and  _71
REMARK   30  A    between atoms: _70  and  _73
REMARK   31  A    between atoms: _73  and  _74
REMARK   32  A    between atoms: _76  and  _78
REMARK   33  A    between atoms: _78  and  _79
REMARK   34  A    between atoms: _78  and  _81
REMARK   35  A    between atoms: _81  and  _82
REMARK   36  A    between atoms: _85  and  _87
REMARK   37  A    between atoms: _87  and  _88
REMARK   38  A    between atoms: _87  and  _90
REMARK   39  A    between atoms: _90  and  _91
REMARK   40  A    between atoms: _97  and  _99
REMARK   41  A    between atoms: _99  and  _100
REMARK   42  A    between atoms: _99  and  _102
REMARK   43  A    between atoms: _105  and  _107
REMARK   44  A    between atoms: _107  and  _108
REMARK   45  A    between atoms: _107  and  _110
REMARK   46  A    between atoms: _110  and  _111
REMARK   47  A    between atoms: _117  and  _118
REMARK   48  A    between atoms: _123  and  _125
REMARK   49  A    between atoms: _125  and  _126
REMARK   50  A    between atoms: _125  and  _128
REMARK   51  A    between atoms: _128  and  _129
REMARK   52  A    between atoms: _129  and  _130
REMARK   53  A    between atoms: _132  and  _134
REMARK   54  A    between atoms: _134  and  _135
REMARK   55  A    between atoms: _134  and  _137
REMARK   56  A    between atoms: _137  and  _138
REMARK   57  A    between atoms: _138  and  _139
REMARK   58  A    between atoms: _144  and  _146
REMARK   59  A    between atoms: _146  and  _147
REMARK   60  A    between atoms: _146  and  _149
REMARK   61  A    between atoms: _149  and  _150
REMARK   62  A    between atoms: _156  and  _158
REMARK   63  A    between atoms: _158  and  _159
REMARK   64  A    between atoms: _158  and  _161
REMARK   65  A    between atoms: _161  and  _162
REMARK   66  A    between atoms: _167  and  _168
REMARK   67  A    between atoms: _170  and  _172
REMARK   68  A    between atoms: _172  and  _173
REMARK   69  A    between atoms: _172  and  _175
REMARK   70  A    between atoms: _175  and  _176
REMARK   71  A    between atoms: _181  and  _182
REMARK   72  A    between atoms: _184  and  _186
REMARK   73  A    between atoms: _186  and  _187
REMARK   74  A    between atoms: _186  and  _189
REMARK   75  A    between atoms: _189  and  _190
REMARK   76  A    between atoms: _195  and  _197
REMARK   77  A    between atoms: _197  and  _198
REMARK   78  A    between atoms: _197  and  _200
REMARK   79  A    between atoms: _200  and  _201
REMARK   80  A    between atoms: _207  and  _209
REMARK   81  A    between atoms: _209  and  _210
REMARK   82  A    between atoms: _212  and  _214
REMARK   83  A    between atoms: _214  and  _215
REMARK   84  A    between atoms: _214  and  _217
REMARK   85  A    between atoms: _220  and  _222
REMARK   86  A    between atoms: _222  and  _223
REMARK   87  A    between atoms: _222  and  _225
REMARK   88  A    between atoms: _225  and  _226
REMARK   89  A    between atoms: _228  and  _230
REMARK   90  A    between atoms: _230  and  _231
REMARK   91  A    between atoms: _230  and  _233
REMARK   92  A    between atoms: _233  and  _234
REMARK   93  A    between atoms: _237  and  _239
REMARK   94  A    between atoms: _239  and  _240
REMARK   95  A    between atoms: _239  and  _242
REMARK   96  A    between atoms: _242  and  _243
REMARK   97  A    between atoms: _246  and  _248
REMARK   98  A    between atoms: _248  and  _249
REMARK   99  A    between atoms: _248  and  _251
REMARK  100  A    between atoms: _254  and  _256
REMARK  101  A    between atoms: _256  and  _257
REMARK  102  A    between atoms: _256  and  _259
REMARK  103  A    between atoms: _259  and  _260
REMARK  104  A    between atoms: _262  and  _264
REMARK  105  A    between atoms: _264  and  _265
REMARK  106  A    between atoms: _264  and  _267
REMARK  107  A    between atoms: _267  and  _268
REMARK  108  A    between atoms: _271  and  _273
REMARK  109  A    between atoms: _273  and  _274
REMARK  110  A    between atoms: _273  and  _276
REMARK  111  A    between atoms: _278  and  _280
REMARK  112  A    between atoms: _280  and  _281
REMARK  113  A    between atoms: _280  and  _283
REMARK  114  A    between atoms: _283  and  _284
REMARK  115  A    between atoms: _290  and  _292
REMARK  116  A    between atoms: _292  and  _293
REMARK  117  A    between atoms: _295  and  _297
REMARK  118  A    between atoms: _297  and  _298
REMARK  119  A    between atoms: _297  and  _300
REMARK  120  A    between atoms: _300  and  _301
REMARK  121  A    between atoms: _304  and  _306
REMARK  122  A    between atoms: _306  and  _307
REMARK  123  A    between atoms: _306  and  _309
REMARK  124  A    between atoms: _309  and  _310
REMARK  125  A    between atoms: _310  and  _311
REMARK  126  A    between atoms: _316  and  _318
REMARK  127  A    between atoms: _318  and  _319
REMARK  128  A    between atoms: _318  and  _321
REMARK  129  A    between atoms: _321  and  _322
REMARK                            x       y       z     vdW  Elec       q    Type
REMARK                         _______ _______ _______ _____ _____    ______ ____
ROOT
ATOM      1  O   HOH     1      11.698 -13.152   7.085  0.00  0.00    +0.000 OA
ENDROOT
TORSDOF 0
REMARK  Name = ../refined-set-2016/3guz/3guz_pocket.pdb
REMARK  129 active torsions:
REMARK  status: ('A' for Active; 'I' for Inactive)
REMARK    1  A    between atoms: _1  and  _3
REMARK    2  A    between atoms: _3  and  _4
REMARK    3  A    between atoms: _3  and  _6
REMARK    4  A    between atoms: _10  and  _11
REMARK    5  A    between atoms: _16  and  _18
REMARK    6  A    between atoms: _18  and  _19
REMARK    7  A    between atoms: _18  and  _21
REMARK    8  A    between atoms: _21  and  _22
REMARK    9  A    between atoms: _25  and  _27
REMARK   10  A    between atoms: _27  and  _28
REMARK   11  A    between atoms: _27  and  _30
REMARK   12  A    between atoms: _30  and  _31
REMARK   13  A    between atoms: _31  and  _32
REMARK   14  A    between atoms: _34  and  _36
REMARK   15  A    between atoms: _36  and  _37
REMARK   16  A    between atoms: _39  and  _41
REMARK   17  A    between atoms: _41  and  _42
REMARK   18  A    between atoms: _41  and  _44
REMARK   19  A    between atoms: _44  and  _45
REMARK   20  A    between atoms: _48  and  _50
REMARK   21  A    between atoms: _50  and  _51
REMARK   22  A    between atoms: _50  and  _53
REMARK   23  A    between atoms: _53  and  _54
REMARK   24  A    between atoms: _59  and  _61
REMARK   25  A    between atoms: _61  and  _62
REMARK   26  A    between atoms: _61  and  _64
REMARK   27  A    between atoms: _64  and  _65
REMARK   28  A    between atoms: _68  and  _70
REMARK   29  A    between atoms: _70  and  _71
REMARK   30  A    between atoms: _70  and  _73
REMARK   31  A    between atoms: _73  and  _74
REMARK   32  A    between atoms: _76  and  _78
REMARK   33  A    between atoms: _78  and  _79
REMARK   34  A    between atoms: _78  and  _81
REMARK   35  A    between atoms: _81  and  _82
REMARK   36  A    between atoms: _85  and  _87
REMARK   37  A    between atoms: _87  and  _88
REMARK   38  A    between atoms: _87  and  _90
REMARK   39  A    between atoms: _90  and  _91
REMARK   40  A    between atoms: _97  and  _99
REMARK   41  A    between atoms: _99  and  _100
REMARK   42  A    between atoms: _99  and  _102
REMARK   43  A    between atoms: _105  and  _107
REMARK   44  A    between atoms: _107  and  _108
REMARK   45  A    between atoms: _107  and  _110
REMARK   46  A    between atoms: _110  and  _111
REMARK   47  A    between atoms: _117  and  _118
REMARK   48  A    between atoms: _123  and  _125
REMARK   49  A    between atoms: _125  and  _126
REMARK   50  A    between atoms: _125  and  _128
REMARK   51  A    between atoms: _128  and  _129
REMARK   52  A    between atoms: _129  and  _130
REMARK   53  A    between atoms: _132  and  _134
REMARK   54  A    between atoms: _134  and  _135
REMARK   55  A    between atoms: _134  and  _137
REMARK   56  A    between atoms: _137  and  _138
REMARK   57  A    between atoms: _138  and  _139
REMARK   58  A    between atoms: _144  and  _146
REMARK   59  A    between atoms: _146  and  _147
REMARK   60  A    between atoms: _146  and  _149
REMARK   61  A    between atoms: _149  and  _150
REMARK   62  A    between atoms: _156  and  _158
REMARK   63  A    between atoms: _158  and  _159
REMARK   64  A    between atoms: _158  and  _161
REMARK   65  A    between atoms: _161  and  _162
REMARK   66  A    between atoms: _167  and  _168
REMARK   67  A    between atoms: _170  and  _172
REMARK   68  A    between atoms: _172  and  _173
REMARK   69  A    between atoms: _172  and  _175
REMARK   70  A    between atoms: _175  and  _176
REMARK   71  A    between atoms: _181  and  _182
REMARK   72  A    between atoms: _184  and  _186
REMARK   73  A    between atoms: _186  and  _187
REMARK   74  A    between atoms: _186  and  _189
REMARK   75  A    between atoms: _189  and  _190
REMARK   76  A    between atoms: _195  and  _197
REMARK   77  A    between atoms: _197  and  _198
REMARK   78  A    between atoms: _197  and  _200
REMARK   79  A    between atoms: _200  and  _201
REMARK   80  A    between atoms: _207  and  _209
REMARK   81  A    between atoms: _209  and  _210
REMARK   82  A    between atoms: _212  and  _214
REMARK   83  A    between atoms: _214  and  _215
REMARK   84  A    between atoms: _214  and  _217
REMARK   85  A    between atoms: _220  and  _222
REMARK   86  A    between atoms: _222  and  _223
REMARK   87  A    between atoms: _222  and  _225
REMARK   88  A    between atoms: _225  and  _226
REMARK   89  A    between atoms: _228  and  _230
REMARK   90  A    between atoms: _230  and  _231
REMARK   91  A    between atoms: _230  and  _233
REMARK   92  A    between atoms: _233  and  _234
REMARK   93  A    between atoms: _237  and  _239
REMARK   94  A    between atoms: _239  and  _240
REMARK   95  A    between atoms: _239  and  _242
REMARK   96  A    between atoms: _242  and  _243
REMARK   97  A    between atoms: _246  and  _248
REMARK   98  A    between atoms: _248  and  _249
REMARK   99  A    between atoms: _248  and  _251
REMARK  100  A    between atoms: _254  and  _256
REMARK  101  A    between atoms: _256  and  _257
REMARK  102  A    between atoms: _256  and  _259
REMARK  103  A    between atoms: _259  and  _260
REMARK  104  A    between atoms: _262  and  _264
REMARK  105  A    between atoms: _264  and  _265
REMARK  106  A    between atoms: _264  and  _267
REMARK  107  A    between atoms: _267  and  _268
REMARK  108  A    between atoms: _271  and  _273
REMARK  109  A    between atoms: _273  and  _274
REMARK  110  A    between atoms: _273  and  _276
REMARK  111  A    between atoms: _278  and  _280
REMARK  112  A    between atoms: _280  and  _281
REMARK  113  A    between atoms: _280  and  _283
REMARK  114  A    between atoms: _283  and  _284
REMARK  115  A    between atoms: _290  and  _292
REMARK  116  A    between atoms: _292  and  _293
REMARK  117  A    between atoms: _295  and  _297
REMARK  118  A    between atoms: _297  and  _298
REMARK  119  A    between atoms: _297  and  _300
REMARK  120  A    between atoms: _300  and  _301
REMARK  121  A    between atoms: _304  and  _306
REMARK  122  A    between atoms: _306  and  _307
REMARK  123  A    between atoms: _306  and  _309
REMARK  124  A    between atoms: _309  and  _310
REMARK  125  A    between atoms: _310  and  _311
REMARK  126  A    between atoms: _316  and  _318
REMARK  127  A    between atoms: _318  and  _319
REMARK  128  A    between atoms: _318  and  _321
REMARK  129  A    between atoms: _321  and  _322
REMARK                            x       y       z     vdW  Elec       q    Type
REMARK                         _______ _______ _______ _____ _____    ______ ____
ROOT
ATOM      1  O   HOH     1      13.577  -7.281   1.966  0.00  0.00    +0.000 OA
ENDROOT
TORSDOF 0
REMARK  Name = ../refined-set-2016/3guz/3guz_pocket.pdb
REMARK  129 active torsions:
REMARK  status: ('A' for Active; 'I' for Inactive)
REMARK    1  A    between atoms: _1  and  _3
REMARK    2  A    between atoms: _3  and  _4
REMARK    3  A    between atoms: _3  and  _6
REMARK    4  A    between atoms: _10  and  _11
REMARK    5  A    between atoms: _16  and  _18
REMARK    6  A    between atoms: _18  and  _19
REMARK    7  A    between atoms: _18  and  _21
REMARK    8  A    between atoms: _21  and  _22
REMARK    9  A    between atoms: _25  and  _27
REMARK   10  A    between atoms: _27  and  _28
REMARK   11  A    between atoms: _27  and  _30
REMARK   12  A    between atoms: _30  and  _31
REMARK   13  A    between atoms: _31  and  _32
REMARK   14  A    between atoms: _34  and  _36
REMARK   15  A    between atoms: _36  and  _37
REMARK   16  A    between atoms: _39  and  _41
REMARK   17  A    between atoms: _41  and  _42
REMARK   18  A    between atoms: _41  and  _44
REMARK   19  A    between atoms: _44  and  _45
REMARK   20  A    between atoms: _48  and  _50
REMARK   21  A    between atoms: _50  and  _51
REMARK   22  A    between atoms: _50  and  _53
REMARK   23  A    between atoms: _53  and  _54
REMARK   24  A    between atoms: _59  and  _61
REMARK   25  A    between atoms: _61  and  _62
REMARK   26  A    between atoms: _61  and  _64
REMARK   27  A    between atoms: _64  and  _65
REMARK   28  A    between atoms: _68  and  _70
REMARK   29  A    between atoms: _70  and  _71
REMARK   30  A    between atoms: _70  and  _73
REMARK   31  A    between atoms: _73  and  _74
REMARK   32  A    between atoms: _76  and  _78
REMARK   33  A    between atoms: _78  and  _79
REMARK   34  A    between atoms: _78  and  _81
REMARK   35  A    between atoms: _81  and  _82
REMARK   36  A    between atoms: _85  and  _87
REMARK   37  A    between atoms: _87  and  _88
REMARK   38  A    between atoms: _87  and  _90
REMARK   39  A    between atoms: _90  and  _91
REMARK   40  A    between atoms: _97  and  _99
REMARK   41  A    between atoms: _99  and  _100
REMARK   42  A    between atoms: _99  and  _102
REMARK   43  A    between atoms: _105  and  _107
REMARK   44  A    between atoms: _107  and  _108
REMARK   45  A    between atoms: _107  and  _110
REMARK   46  A    between atoms: _110  and  _111
REMARK   47  A    between atoms: _117  and  _118
REMARK   48  A    between atoms: _123  and  _125
REMARK   49  A    between atoms: _125  and  _126
REMARK   50  A    between atoms: _125  and  _128
REMARK   51  A    between atoms: _128  and  _129
REMARK   52  A    between atoms: _129  and  _130
REMARK   53  A    between atoms: _132  and  _134
REMARK   54  A    between atoms: _134  and  _135
REMARK   55  A    between atoms: _134  and  _137
REMARK   56  A    between atoms: _137  and  _138
REMARK   57  A    between atoms: _138  and  _139
REMARK   58  A    between atoms: _144  and  _146
REMARK   59  A    between atoms: _146  and  _147
REMARK   60  A    between atoms: _146  and  _149
REMARK   61  A    between atoms: _149  and  _150
REMARK   62  A    between atoms: _156  and  _158
REMARK   63  A    between atoms: _158  and  _159
REMARK   64  A    between atoms: _158  and  _161
REMARK   65  A    between atoms: _161  and  _162
REMARK   66  A    between atoms: _167  and  _168
REMARK   67  A    between atoms: _170  and  _172
REMARK   68  A    between atoms: _172  and  _173
REMARK   69  A    between atoms: _172  and  _175
REMARK   70  A    between atoms: _175  and  _176
REMARK   71  A    between atoms: _181  and  _182
REMARK   72  A    between atoms: _184  and  _186
REMARK   73  A    between atoms: _186  and  _187
REMARK   74  A    between atoms: _186  and  _189
REMARK   75  A    between atoms: _189  and  _190
REMARK   76  A    between atoms: _195  and  _197
REMARK   77  A    between atoms: _197  and  _198
REMARK   78  A    between atoms: _197  and  _200
REMARK   79  A    between atoms: _200  and  _201
REMARK   80  A    between atoms: _207  and  _209
REMARK   81  A    between atoms: _209  and  _210
REMARK   82  A    between atoms: _212  and  _214
REMARK   83  A    between atoms: _214  and  _215
REMARK   84  A    between atoms: _214  and  _217
REMARK   85  A    between atoms: _220  and  _222
REMARK   86  A    between atoms: _222  and  _223
REMARK   87  A    between atoms: _222  and  _225
REMARK   88  A    between atoms: _225  and  _226
REMARK   89  A    between atoms: _228  and  _230
REMARK   90  A    between atoms: _230  and  _231
REMARK   91  A    between atoms: _230  and  _233
REMARK   92  A    between atoms: _233  and  _234
REMARK   93  A    between atoms: _237  and  _239
REMARK   94  A    between atoms: _239  and  _240
REMARK   95  A    between atoms: _239  and  _242
REMARK   96  A    between atoms: _242  and  _243
REMARK   97  A    between atoms: _246  and  _248
REMARK   98  A    between atoms: _248  and  _249
REMARK   99  A    between atoms: _248  and  _251
REMARK  100  A    between atoms: _254  and  _256
REMARK  101  A    between atoms: _256  and  _257
REMARK  102  A    between atoms: _256  and  _259
REMARK  103  A    between atoms: _259  and  _260
REMARK  104  A    between atoms: _262  and  _264
REMARK  105  A    between atoms: _264  and  _265
REMARK  106  A    between atoms: _264  and  _267
REMARK  107  A    between atoms: _267  and  _268
REMARK  108  A    between atoms: _271  and  _273
REMARK  109  A    between atoms: _273  and  _274
REMARK  110  A    between atoms: _273  and  _276
REMARK  111  A    between atoms: _278  and  _280
REMARK  112  A    between atoms: _280  and  _281
REMARK  113  A    between atoms: _280  and  _283
REMARK  114  A    between atoms: _283  and  _284
REMARK  115  A    between atoms: _290  and  _292
REMARK  116  A    between atoms: _292  and  _293
REMARK  117  A    between atoms: _295  and  _297
REMARK  118  A    between atoms: _297  and  _298
REMARK  119  A    between atoms: _297  and  _300
REMARK  120  A    between atoms: _300  and  _301
REMARK  121  A    between atoms: _304  and  _306
REMARK  122  A    between atoms: _306  and  _307
REMARK  123  A    between atoms: _306  and  _309
REMARK  124  A    between atoms: _309  and  _310
REMARK  125  A    between atoms: _310  and  _311
REMARK  126  A    between atoms: _316  and  _318
REMARK  127  A    between atoms: _318  and  _319
REMARK  128  A    between atoms: _318  and  _321
REMARK  129  A    between atoms: _321  and  _322
REMARK                            x       y       z     vdW  Elec       q    Type
REMARK                         _______ _______ _______ _____ _____    ______ ____
ROOT
ATOM      1  O   HOH     1       7.424 -12.628   1.058  0.00  0.00    +0.000 OA
ENDROOT
TORSDOF 0
REMARK  Name = ../refined-set-2016/3guz/3guz_pocket.pdb
REMARK  129 active torsions:
REMARK  status: ('A' for Active; 'I' for Inactive)
REMARK    1  A    between atoms: _1  and  _3
REMARK    2  A    between atoms: _3  and  _4
REMARK    3  A    between atoms: _3  and  _6
REMARK    4  A    between atoms: _10  and  _11
REMARK    5  A    between atoms: _16  and  _18
REMARK    6  A    between atoms: _18  and  _19
REMARK    7  A    between atoms: _18  and  _21
REMARK    8  A    between atoms: _21  and  _22
REMARK    9  A    between atoms: _25  and  _27
REMARK   10  A    between atoms: _27  and  _28
REMARK   11  A    between atoms: _27  and  _30
REMARK   12  A    between atoms: _30  and  _31
REMARK   13  A    between atoms: _31  and  _32
REMARK   14  A    between atoms: _34  and  _36
REMARK   15  A    between atoms: _36  and  _37
REMARK   16  A    between atoms: _39  and  _41
REMARK   17  A    between atoms: _41  and  _42
REMARK   18  A    between atoms: _41  and  _44
REMARK   19  A    between atoms: _44  and  _45
REMARK   20  A    between atoms: _48  and  _50
REMARK   21  A    between atoms: _50  and  _51
REMARK   22  A    between atoms: _50  and  _53
REMARK   23  A    between atoms: _53  and  _54
REMARK   24  A    between atoms: _59  and  _61
REMARK   25  A    between atoms: _61  and  _62
REMARK   26  A    between atoms: _61  and  _64
REMARK   27  A    between atoms: _64  and  _65
REMARK   28  A    between atoms: _68  and  _70
REMARK   29  A    between atoms: _70  and  _71
REMARK   30  A    between atoms: _70  and  _73
REMARK   31  A    between atoms: _73  and  _74
REMARK   32  A    between atoms: _76  and  _78
REMARK   33  A    between atoms: _78  and  _79
REMARK   34  A    between atoms: _78  and  _81
REMARK   35  A    between atoms: _81  and  _82
REMARK   36  A    between atoms: _85  and  _87
REMARK   37  A    between atoms: _87  and  _88
REMARK   38  A    between atoms: _87  and  _90
REMARK   39  A    between atoms: _90  and  _91
REMARK   40  A    between atoms: _97  and  _99
REMARK   41  A    between atoms: _99  and  _100
REMARK   42  A    between atoms: _99  and  _102
REMARK   43  A    between atoms: _105  and  _107
REMARK   44  A    between atoms: _107  and  _108
REMARK   45  A    between atoms: _107  and  _110
REMARK   46  A    between atoms: _110  and  _111
REMARK   47  A    between atoms: _117  and  _118
REMARK   48  A    between atoms: _123  and  _125
REMARK   49  A    between atoms: _125  and  _126
REMARK   50  A    between atoms: _125  and  _128
REMARK   51  A    between atoms: _128  and  _129
REMARK   52  A    between atoms: _129  and  _130
REMARK   53  A    between atoms: _132  and  _134
REMARK   54  A    between atoms: _134  and  _135
REMARK   55  A    between atoms: _134  and  _137
REMARK   56  A    between atoms: _137  and  _138
REMARK   57  A    between atoms: _138  and  _139
REMARK   58  A    between atoms: _144  and  _146
REMARK   59  A    between atoms: _146  and  _147
REMARK   60  A    between atoms: _146  and  _149
REMARK   61  A    between atoms: _149  and  _150
REMARK   62  A    between atoms: _156  and  _158
REMARK   63  A    between atoms: _158  and  _159
REMARK   64  A    between atoms: _158  and  _161
REMARK   65  A    between atoms: _161  and  _162
REMARK   66  A    between atoms: _167  and  _168
REMARK   67  A    between atoms: _170  and  _172
REMARK   68  A    between atoms: _172  and  _173
REMARK   69  A    between atoms: _172  and  _175
REMARK   70  A    between atoms: _175  and  _176
REMARK   71  A    between atoms: _181  and  _182
REMARK   72  A    between atoms: _184  and  _186
REMARK   73  A    between atoms: _186  and  _187
REMARK   74  A    between atoms: _186  and  _189
REMARK   75  A    between atoms: _189  and  _190
REMARK   76  A    between atoms: _195  and  _197
REMARK   77  A    between atoms: _197  and  _198
REMARK   78  A    between atoms: _197  and  _200
REMARK   79  A    between atoms: _200  and  _201
REMARK   80  A    between atoms: _207  and  _209
REMARK   81  A    between atoms: _209  and  _210
REMARK   82  A    between atoms: _212  and  _214
REMARK   83  A    between atoms: _214  and  _215
REMARK   84  A    between atoms: _214  and  _217
REMARK   85  A    between atoms: _220  and  _222
REMARK   86  A    between atoms: _222  and  _223
REMARK   87  A    between atoms: _222  and  _225
REMARK   88  A    between atoms: _225  and  _226
REMARK   89  A    between atoms: _228  and  _230
REMARK   90  A    between atoms: _230  and  _231
REMARK   91  A    between atoms: _230  and  _233
REMARK   92  A    between atoms: _233  and  _234
REMARK   93  A    between atoms: _237  and  _239
REMARK   94  A    between atoms: _239  and  _240
REMARK   95  A    between atoms: _239  and  _242
REMARK   96  A    between atoms: _242  and  _243
REMARK   97  A    between atoms: _246  and  _248
REMARK   98  A    between atoms: _248  and  _249
REMARK   99  A    between atoms: _248  and  _251
REMARK  100  A    between atoms: _254  and  _256
REMARK  101  A    between atoms: _256  and  _257
REMARK  102  A    between atoms: _256  and  _259
REMARK  103  A    between atoms: _259  and  _260
REMARK  104  A    between atoms: _262  and  _264
REMARK  105  A    between atoms: _264  and  _265
REMARK  106  A    between atoms: _264  and  _267
REMARK  107  A    between atoms: _267  and  _268
REMARK  108  A    between atoms: _271  and  _273
REMARK  109  A    between atoms: _273  and  _274
REMARK  110  A    between atoms: _273  and  _276
REMARK  111  A    between atoms: _278  and  _280
REMARK  112  A    between atoms: _280  and  _281
REMARK  113  A    between atoms: _280  and  _283
REMARK  114  A    between atoms: _283  and  _284
REMARK  115  A    between atoms: _290  and  _292
REMARK  116  A    between atoms: _292  and  _293
REMARK  117  A    between atoms: _295  and  _297
REMARK  118  A    between atoms: _297  and  _298
REMARK  119  A    between atoms: _297  and  _300
REMARK  120  A    between atoms: _300  and  _301
REMARK  121  A    between atoms: _304  and  _306
REMARK  122  A    between atoms: _306  and  _307
REMARK  123  A    between atoms: _306  and  _309
REMARK  124  A    between atoms: _309  and  _310
REMARK  125  A    between atoms: _310  and  _311
REMARK  126  A    between atoms: _316  and  _318
REMARK  127  A    between atoms: _318  and  _319
REMARK  128  A    between atoms: _318  and  _321
REMARK  129  A    between atoms: _321  and  _322
REMARK                            x       y       z     vdW  Elec       q    Type
REMARK                         _______ _______ _______ _____ _____    ______ ____
ROOT
ATOM      1  O   HOH     1       6.010 -15.940  -1.556  0.00  0.00    +0.000 OA
ENDROOT
TORSDOF 0
REMARK  Name = ../refined-set-2016/3guz/3guz_pocket.pdb
REMARK  129 active torsions:
REMARK  status: ('A' for Active; 'I' for Inactive)
REMARK    1  A    between atoms: _1  and  _3
REMARK    2  A    between atoms: _3  and  _4
REMARK    3  A    between atoms: _3  and  _6
REMARK    4  A    between atoms: _10  and  _11
REMARK    5  A    between atoms: _16  and  _18
REMARK    6  A    between atoms: _18  and  _19
REMARK    7  A    between atoms: _18  and  _21
REMARK    8  A    between atoms: _21  and  _22
REMARK    9  A    between atoms: _25  and  _27
REMARK   10  A    between atoms: _27  and  _28
REMARK   11  A    between atoms: _27  and  _30
REMARK   12  A    between atoms: _30  and  _31
REMARK   13  A    between atoms: _31  and  _32
REMARK   14  A    between atoms: _34  and  _36
REMARK   15  A    between atoms: _36  and  _37
REMARK   16  A    between atoms: _39  and  _41
REMARK   17  A    between atoms: _41  and  _42
REMARK   18  A    between atoms: _41  and  _44
REMARK   19  A    between atoms: _44  and  _45
REMARK   20  A    between atoms: _48  and  _50
REMARK   21  A    between atoms: _50  and  _51
REMARK   22  A    between atoms: _50  and  _53
REMARK   23  A    between atoms: _53  and  _54
REMARK   24  A    between atoms: _59  and  _61
REMARK   25  A    between atoms: _61  and  _62
REMARK   26  A    between atoms: _61  and  _64
REMARK   27  A    between atoms: _64  and  _65
REMARK   28  A    between atoms: _68  and  _70
REMARK   29  A    between atoms: _70  and  _71
REMARK   30  A    between atoms: _70  and  _73
REMARK   31  A    between atoms: _73  and  _74
REMARK   32  A    between atoms: _76  and  _78
REMARK   33  A    between atoms: _78  and  _79
REMARK   34  A    between atoms: _78  and  _81
REMARK   35  A    between atoms: _81  and  _82
REMARK   36  A    between atoms: _85  and  _87
REMARK   37  A    between atoms: _87  and  _88
REMARK   38  A    between atoms: _87  and  _90
REMARK   39  A    between atoms: _90  and  _91
REMARK   40  A    between atoms: _97  and  _99
REMARK   41  A    between atoms: _99  and  _100
REMARK   42  A    between atoms: _99  and  _102
REMARK   43  A    between atoms: _105  and  _107
REMARK   44  A    between atoms: _107  and  _108
REMARK   45  A    between atoms: _107  and  _110
REMARK   46  A    between atoms: _110  and  _111
REMARK   47  A    between atoms: _117  and  _118
REMARK   48  A    between atoms: _123  and  _125
REMARK   49  A    between atoms: _125  and  _126
REMARK   50  A    between atoms: _125  and  _128
REMARK   51  A    between atoms: _128  and  _129
REMARK   52  A    between atoms: _129  and  _130
REMARK   53  A    between atoms: _132  and  _134
REMARK   54  A    between atoms: _134  and  _135
REMARK   55  A    between atoms: _134  and  _137
REMARK   56  A    between atoms: _137  and  _138
REMARK   57  A    between atoms: _138  and  _139
REMARK   58  A    between atoms: _144  and  _146
REMARK   59  A    between atoms: _146  and  _147
REMARK   60  A    between atoms: _146  and  _149
REMARK   61  A    between atoms: _149  and  _150
REMARK   62  A    between atoms: _156  and  _158
REMARK   63  A    between atoms: _158  and  _159
REMARK   64  A    between atoms: _158  and  _161
REMARK   65  A    between atoms: _161  and  _162
REMARK   66  A    between atoms: _167  and  _168
REMARK   67  A    between atoms: _170  and  _172
REMARK   68  A    between atoms: _172  and  _173
REMARK   69  A    between atoms: _172  and  _175
REMARK   70  A    between atoms: _175  and  _176
REMARK   71  A    between atoms: _181  and  _182
REMARK   72  A    between atoms: _184  and  _186
REMARK   73  A    between atoms: _186  and  _187
REMARK   74  A    between atoms: _186  and  _189
REMARK   75  A    between atoms: _189  and  _190
REMARK   76  A    between atoms: _195  and  _197
REMARK   77  A    between atoms: _197  and  _198
REMARK   78  A    between atoms: _197  and  _200
REMARK   79  A    between atoms: _200  and  _201
REMARK   80  A    between atoms: _207  and  _209
REMARK   81  A    between atoms: _209  and  _210
REMARK   82  A    between atoms: _212  and  _214
REMARK   83  A    between atoms: _214  and  _215
REMARK   84  A    between atoms: _214  and  _217
REMARK   85  A    between atoms: _220  and  _222
REMARK   86  A    between atoms: _222  and  _223
REMARK   87  A    between atoms: _222  and  _225
REMARK   88  A    between atoms: _225  and  _226
REMARK   89  A    between atoms: _228  and  _230
REMARK   90  A    between atoms: _230  and  _231
REMARK   91  A    between atoms: _230  and  _233
REMARK   92  A    between atoms: _233  and  _234
REMARK   93  A    between atoms: _237  and  _239
REMARK   94  A    between atoms: _239  and  _240
REMARK   95  A    between atoms: _239  and  _242
REMARK   96  A    between atoms: _242  and  _243
REMARK   97  A    between atoms: _246  and  _248
REMARK   98  A    between atoms: _248  and  _249
REMARK   99  A    between atoms: _248  and  _251
REMARK  100  A    between atoms: _254  and  _256
REMARK  101  A    between atoms: _256  and  _257
REMARK  102  A    between atoms: _256  and  _259
REMARK  103  A    between atoms: _259  and  _260
REMARK  104  A    between atoms: _262  and  _264
REMARK  105  A    between atoms: _264  and  _265
REMARK  106  A    between atoms: _264  and  _267
REMARK  107  A    between atoms: _267  and  _268
REMARK  108  A    between atoms: _271  and  _273
REMARK  109  A    between atoms: _273  and  _274
REMARK  110  A    between atoms: _273  and  _276
REMARK  111  A    between atoms: _278  and  _280
REMARK  112  A    between atoms: _280  and  _281
REMARK  113  A    between atoms: _280  and  _283
REMARK  114  A    between atoms: _283  and  _284
REMARK  115  A    between atoms: _290  and  _292
REMARK  116  A    between atoms: _292  and  _293
REMARK  117  A    between atoms: _295  and  _297
REMARK  118  A    between atoms: _297  and  _298
REMARK  119  A    between atoms: _297  and  _300
REMARK  120  A    between atoms: _300  and  _301
REMARK  121  A    between atoms: _304  and  _306
REMARK  122  A    between atoms: _306  and  _307
REMARK  123  A    between atoms: _306  and  _309
REMARK  124  A    between atoms: _309  and  _310
REMARK  125  A    between atoms: _310  and  _311
REMARK  126  A    between atoms: _316  and  _318
REMARK  127  A    between atoms: _318  and  _319
REMARK  128  A    between atoms: _318  and  _321
REMARK  129  A    between atoms: _321  and  _322
REMARK                            x       y       z     vdW  Elec       q    Type
REMARK                         _______ _______ _______ _____ _____    ______ ____
ROOT
ATOM      1  O   HOH     1       8.140 -15.076   1.435  0.00  0.00    +0.000 OA
ENDROOT
TORSDOF 0
REMARK  Name = ../refined-set-2016/3guz/3guz_pocket.pdb
REMARK  129 active torsions:
REMARK  status: ('A' for Active; 'I' for Inactive)
REMARK    1  A    between atoms: _1  and  _3
REMARK    2  A    between atoms: _3  and  _4
REMARK    3  A    between atoms: _3  and  _6
REMARK    4  A    between atoms: _10  and  _11
REMARK    5  A    between atoms: _16  and  _18
REMARK    6  A    between atoms: _18  and  _19
REMARK    7  A    between atoms: _18  and  _21
REMARK    8  A    between atoms: _21  and  _22
REMARK    9  A    between atoms: _25  and  _27
REMARK   10  A    between atoms: _27  and  _28
REMARK   11  A    between atoms: _27  and  _30
REMARK   12  A    between atoms: _30  and  _31
REMARK   13  A    between atoms: _31  and  _32
REMARK   14  A    between atoms: _34  and  _36
REMARK   15  A    between atoms: _36  and  _37
REMARK   16  A    between atoms: _39  and  _41
REMARK   17  A    between atoms: _41  and  _42
REMARK   18  A    between atoms: _41  and  _44
REMARK   19  A    between atoms: _44  and  _45
REMARK   20  A    between atoms: _48  and  _50
REMARK   21  A    between atoms: _50  and  _51
REMARK   22  A    between atoms: _50  and  _53
REMARK   23  A    between atoms: _53  and  _54
REMARK   24  A    between atoms: _59  and  _61
REMARK   25  A    between atoms: _61  and  _62
REMARK   26  A    between atoms: _61  and  _64
REMARK   27  A    between atoms: _64  and  _65
REMARK   28  A    between atoms: _68  and  _70
REMARK   29  A    between atoms: _70  and  _71
REMARK   30  A    between atoms: _70  and  _73
REMARK   31  A    between atoms: _73  and  _74
REMARK   32  A    between atoms: _76  and  _78
REMARK   33  A    between atoms: _78  and  _79
REMARK   34  A    between atoms: _78  and  _81
REMARK   35  A    between atoms: _81  and  _82
REMARK   36  A    between atoms: _85  and  _87
REMARK   37  A    between atoms: _87  and  _88
REMARK   38  A    between atoms: _87  and  _90
REMARK   39  A    between atoms: _90  and  _91
REMARK   40  A    between atoms: _97  and  _99
REMARK   41  A    between atoms: _99  and  _100
REMARK   42  A    between atoms: _99  and  _102
REMARK   43  A    between atoms: _105  and  _107
REMARK   44  A    between atoms: _107  and  _108
REMARK   45  A    between atoms: _107  and  _110
REMARK   46  A    between atoms: _110  and  _111
REMARK   47  A    between atoms: _117  and  _118
REMARK   48  A    between atoms: _123  and  _125
REMARK   49  A    between atoms: _125  and  _126
REMARK   50  A    between atoms: _125  and  _128
REMARK   51  A    between atoms: _128  and  _129
REMARK   52  A    between atoms: _129  and  _130
REMARK   53  A    between atoms: _132  and  _134
REMARK   54  A    between atoms: _134  and  _135
REMARK   55  A    between atoms: _134  and  _137
REMARK   56  A    between atoms: _137  and  _138
REMARK   57  A    between atoms: _138  and  _139
REMARK   58  A    between atoms: _144  and  _146
REMARK   59  A    between atoms: _146  and  _147
REMARK   60  A    between atoms: _146  and  _149
REMARK   61  A    between atoms: _149  and  _150
REMARK   62  A    between atoms: _156  and  _158
REMARK   63  A    between atoms: _158  and  _159
REMARK   64  A    between atoms: _158  and  _161
REMARK   65  A    between atoms: _161  and  _162
REMARK   66  A    between atoms: _167  and  _168
REMARK   67  A    between atoms: _170  and  _172
REMARK   68  A    between atoms: _172  and  _173
REMARK   69  A    between atoms: _172  and  _175
REMARK   70  A    between atoms: _175  and  _176
REMARK   71  A    between atoms: _181  and  _182
REMARK   72  A    between atoms: _184  and  _186
REMARK   73  A    between atoms: _186  and  _187
REMARK   74  A    between atoms: _186  and  _189
REMARK   75  A    between atoms: _189  and  _190
REMARK   76  A    between atoms: _195  and  _197
REMARK   77  A    between atoms: _197  and  _198
REMARK   78  A    between atoms: _197  and  _200
REMARK   79  A    between atoms: _200  and  _201
REMARK   80  A    between atoms: _207  and  _209
REMARK   81  A    between atoms: _209  and  _210
REMARK   82  A    between atoms: _212  and  _214
REMARK   83  A    between atoms: _214  and  _215
REMARK   84  A    between atoms: _214  and  _217
REMARK   85  A    between atoms: _220  and  _222
REMARK   86  A    between atoms: _222  and  _223
REMARK   87  A    between atoms: _222  and  _225
REMARK   88  A    between atoms: _225  and  _226
REMARK   89  A    between atoms: _228  and  _230
REMARK   90  A    between atoms: _230  and  _231
REMARK   91  A    between atoms: _230  and  _233
REMARK   92  A    between atoms: _233  and  _234
REMARK   93  A    between atoms: _237  and  _239
REMARK   94  A    between atoms: _239  and  _240
REMARK   95  A    between atoms: _239  and  _242
REMARK   96  A    between atoms: _242  and  _243
REMARK   97  A    between atoms: _246  and  _248
REMARK   98  A    between atoms: _248  and  _249
REMARK   99  A    between atoms: _248  and  _251
REMARK  100  A    between atoms: _254  and  _256
REMARK  101  A    between atoms: _256  and  _257
REMARK  102  A    between atoms: _256  and  _259
REMARK  103  A    between atoms: _259  and  _260
REMARK  104  A    between atoms: _262  and  _264
REMARK  105  A    between atoms: _264  and  _265
REMARK  106  A    between atoms: _264  and  _267
REMARK  107  A    between atoms: _267  and  _268
REMARK  108  A    between atoms: _271  and  _273
REMARK  109  A    between atoms: _273  and  _274
REMARK  110  A    between atoms: _273  and  _276
REMARK  111  A    between atoms: _278  and  _280
REMARK  112  A    between atoms: _280  and  _281
REMARK  113  A    between atoms: _280  and  _283
REMARK  114  A    between atoms: _283  and  _284
REMARK  115  A    between atoms: _290  and  _292
REMARK  116  A    between atoms: _292  and  _293
REMARK  117  A    between atoms: _295  and  _297
REMARK  118  A    between atoms: _297  and  _298
REMARK  119  A    between atoms: _297  and  _300
REMARK  120  A    between atoms: _300  and  _301
REMARK  121  A    between atoms: _304  and  _306
REMARK  122  A    between atoms: _306  and  _307
REMARK  123  A    between atoms: _306  and  _309
REMARK  124  A    between atoms: _309  and  _310
REMARK  125  A    between atoms: _310  and  _311
REMARK  126  A    between atoms: _316  and  _318
REMARK  127  A    between atoms: _318  and  _319
REMARK  128  A    between atoms: _318  and  _321
REMARK  129  A    between atoms: _321  and  _322
REMARK                            x       y       z     vdW  Elec       q    Type
REMARK                         _______ _______ _______ _____ _____    ______ ____
ROOT
ATOM      1  O   HOH     1      13.249 -17.836  -3.144  0.00  0.00    +0.000 OA
ENDROOT
TORSDOF 0
REMARK  Name = ../refined-set-2016/3guz/3guz_pocket.pdb
REMARK  129 active torsions:
REMARK  status: ('A' for Active; 'I' for Inactive)
REMARK    1  A    between atoms: _1  and  _3
REMARK    2  A    between atoms: _3  and  _4
REMARK    3  A    between atoms: _3  and  _6
REMARK    4  A    between atoms: _10  and  _11
REMARK    5  A    between atoms: _16  and  _18
REMARK    6  A    between atoms: _18  and  _19
REMARK    7  A    between atoms: _18  and  _21
REMARK    8  A    between atoms: _21  and  _22
REMARK    9  A    between atoms: _25  and  _27
REMARK   10  A    between atoms: _27  and  _28
REMARK   11  A    between atoms: _27  and  _30
REMARK   12  A    between atoms: _30  and  _31
REMARK   13  A    between atoms: _31  and  _32
REMARK   14  A    between atoms: _34  and  _36
REMARK   15  A    between atoms: _36  and  _37
REMARK   16  A    between atoms: _39  and  _41
REMARK   17  A    between atoms: _41  and  _42
REMARK   18  A    between atoms: _41  and  _44
REMARK   19  A    between atoms: _44  and  _45
REMARK   20  A    between atoms: _48  and  _50
REMARK   21  A    between atoms: _50  and  _51
REMARK   22  A    between atoms: _50  and  _53
REMARK   23  A    between atoms: _53  and  _54
REMARK   24  A    between atoms: _59  and  _61
REMARK   25  A    between atoms: _61  and  _62
REMARK   26  A    between atoms: _61  and  _64
REMARK   27  A    between atoms: _64  and  _65
REMARK   28  A    between atoms: _68  and  _70
REMARK   29  A    between atoms: _70  and  _71
REMARK   30  A    between atoms: _70  and  _73
REMARK   31  A    between atoms: _73  and  _74
REMARK   32  A    between atoms: _76  and  _78
REMARK   33  A    between atoms: _78  and  _79
REMARK   34  A    between atoms: _78  and  _81
REMARK   35  A    between atoms: _81  and  _82
REMARK   36  A    between atoms: _85  and  _87
REMARK   37  A    between atoms: _87  and  _88
REMARK   38  A    between atoms: _87  and  _90
REMARK   39  A    between atoms: _90  and  _91
REMARK   40  A    between atoms: _97  and  _99
REMARK   41  A    between atoms: _99  and  _100
REMARK   42  A    between atoms: _99  and  _102
REMARK   43  A    between atoms: _105  and  _107
REMARK   44  A    between atoms: _107  and  _108
REMARK   45  A    between atoms: _107  and  _110
REMARK   46  A    between atoms: _110  and  _111
REMARK   47  A    between atoms: _117  and  _118
REMARK   48  A    between atoms: _123  and  _125
REMARK   49  A    between atoms: _125  and  _126
REMARK   50  A    between atoms: _125  and  _128
REMARK   51  A    between atoms: _128  and  _129
REMARK   52  A    between atoms: _129  and  _130
REMARK   53  A    between atoms: _132  and  _134
REMARK   54  A    between atoms: _134  and  _135
REMARK   55  A    between atoms: _134  and  _137
REMARK   56  A    between atoms: _137  and  _138
REMARK   57  A    between atoms: _138  and  _139
REMARK   58  A    between atoms: _144  and  _146
REMARK   59  A    between atoms: _146  and  _147
REMARK   60  A    between atoms: _146  and  _149
REMARK   61  A    between atoms: _149  and  _150
REMARK   62  A    between atoms: _156  and  _158
REMARK   63  A    between atoms: _158  and  _159
REMARK   64  A    between atoms: _158  and  _161
REMARK   65  A    between atoms: _161  and  _162
REMARK   66  A    between atoms: _167  and  _168
REMARK   67  A    between atoms: _170  and  _172
REMARK   68  A    between atoms: _172  and  _173
REMARK   69  A    between atoms: _172  and  _175
REMARK   70  A    between atoms: _175  and  _176
REMARK   71  A    between atoms: _181  and  _182
REMARK   72  A    between atoms: _184  and  _186
REMARK   73  A    between atoms: _186  and  _187
REMARK   74  A    between atoms: _186  and  _189
REMARK   75  A    between atoms: _189  and  _190
REMARK   76  A    between atoms: _195  and  _197
REMARK   77  A    between atoms: _197  and  _198
REMARK   78  A    between atoms: _197  and  _200
REMARK   79  A    between atoms: _200  and  _201
REMARK   80  A    between atoms: _207  and  _209
REMARK   81  A    between atoms: _209  and  _210
REMARK   82  A    between atoms: _212  and  _214
REMARK   83  A    between atoms: _214  and  _215
REMARK   84  A    between atoms: _214  and  _217
REMARK   85  A    between atoms: _220  and  _222
REMARK   86  A    between atoms: _222  and  _223
REMARK   87  A    between atoms: _222  and  _225
REMARK   88  A    between atoms: _225  and  _226
REMARK   89  A    between atoms: _228  and  _230
REMARK   90  A    between atoms: _230  and  _231
REMARK   91  A    between atoms: _230  and  _233
REMARK   92  A    between atoms: _233  and  _234
REMARK   93  A    between atoms: _237  and  _239
REMARK   94  A    between atoms: _239  and  _240
REMARK   95  A    between atoms: _239  and  _242
REMARK   96  A    between atoms: _242  and  _243
REMARK   97  A    between atoms: _246  and  _248
REMARK   98  A    between atoms: _248  and  _249
REMARK   99  A    between atoms: _248  and  _251
REMARK  100  A    between atoms: _254  and  _256
REMARK  101  A    between atoms: _256  and  _257
REMARK  102  A    between atoms: _256  and  _259
REMARK  103  A    between atoms: _259  and  _260
REMARK  104  A    between atoms: _262  and  _264
REMARK  105  A    between atoms: _264  and  _265
REMARK  106  A    between atoms: _264  and  _267
REMARK  107  A    between atoms: _267  and  _268
REMARK  108  A    between atoms: _271  and  _273
REMARK  109  A    between atoms: _273  and  _274
REMARK  110  A    between atoms: _273  and  _276
REMARK  111  A    between atoms: _278  and  _280
REMARK  112  A    between atoms: _280  and  _281
REMARK  113  A    between atoms: _280  and  _283
REMARK  114  A    between atoms: _283  and  _284
REMARK  115  A    between atoms: _290  and  _292
REMARK  116  A    between atoms: _292  and  _293
REMARK  117  A    between atoms: _295  and  _297
REMARK  118  A    between atoms: _297  and  _298
REMARK  119  A    between atoms: _297  and  _300
REMARK  120  A    between atoms: _300  and  _301
REMARK  121  A    between atoms: _304  and  _306
REMARK  122  A    between atoms: _306  and  _307
REMARK  123  A    between atoms: _306  and  _309
REMARK  124  A    between atoms: _309  and  _310
REMARK  125  A    between atoms: _310  and  _311
REMARK  126  A    between atoms: _316  and  _318
REMARK  127  A    between atoms: _318  and  _319
REMARK  128  A    between atoms: _318  and  _321
REMARK  129  A    between atoms: _321  and  _322
REMARK                            x       y       z     vdW  Elec       q    Type
REMARK                         _______ _______ _______ _____ _____    ______ ____
ROOT
ATOM      1  O   HOH     1       5.302 -13.301  -0.780  0.00  0.00    +0.000 OA
ENDROOT
TORSDOF 0
REMARK  Name = ../refined-set-2016/3guz/3guz_pocket.pdb
REMARK  129 active torsions:
REMARK  status: ('A' for Active; 'I' for Inactive)
REMARK    1  A    between atoms: _1  and  _3
REMARK    2  A    between atoms: _3  and  _4
REMARK    3  A    between atoms: _3  and  _6
REMARK    4  A    between atoms: _10  and  _11
REMARK    5  A    between atoms: _16  and  _18
REMARK    6  A    between atoms: _18  and  _19
REMARK    7  A    between atoms: _18  and  _21
REMARK    8  A    between atoms: _21  and  _22
REMARK    9  A    between atoms: _25  and  _27
REMARK   10  A    between atoms: _27  and  _28
REMARK   11  A    between atoms: _27  and  _30
REMARK   12  A    between atoms: _30  and  _31
REMARK   13  A    between atoms: _31  and  _32
REMARK   14  A    between atoms: _34  and  _36
REMARK   15  A    between atoms: _36  and  _37
REMARK   16  A    between atoms: _39  and  _41
REMARK   17  A    between atoms: _41  and  _42
REMARK   18  A    between atoms: _41  and  _44
REMARK   19  A    between atoms: _44  and  _45
REMARK   20  A    between atoms: _48  and  _50
REMARK   21  A    between atoms: _50  and  _51
REMARK   22  A    between atoms: _50  and  _53
REMARK   23  A    between atoms: _53  and  _54
REMARK   24  A    between atoms: _59  and  _61
REMARK   25  A    between atoms: _61  and  _62
REMARK   26  A    between atoms: _61  and  _64
REMARK   27  A    between atoms: _64  and  _65
REMARK   28  A    between atoms: _68  and  _70
REMARK   29  A    between atoms: _70  and  _71
REMARK   30  A    between atoms: _70  and  _73
REMARK   31  A    between atoms: _73  and  _74
REMARK   32  A    between atoms: _76  and  _78
REMARK   33  A    between atoms: _78  and  _79
REMARK   34  A    between atoms: _78  and  _81
REMARK   35  A    between atoms: _81  and  _82
REMARK   36  A    between atoms: _85  and  _87
REMARK   37  A    between atoms: _87  and  _88
REMARK   38  A    between atoms: _87  and  _90
REMARK   39  A    between atoms: _90  and  _91
REMARK   40  A    between atoms: _97  and  _99
REMARK   41  A    between atoms: _99  and  _100
REMARK   42  A    between atoms: _99  and  _102
REMARK   43  A    between atoms: _105  and  _107
REMARK   44  A    between atoms: _107  and  _108
REMARK   45  A    between atoms: _107  and  _110
REMARK   46  A    between atoms: _110  and  _111
REMARK   47  A    between atoms: _117  and  _118
REMARK   48  A    between atoms: _123  and  _125
REMARK   49  A    between atoms: _125  and  _126
REMARK   50  A    between atoms: _125  and  _128
REMARK   51  A    between atoms: _128  and  _129
REMARK   52  A    between atoms: _129  and  _130
REMARK   53  A    between atoms: _132  and  _134
REMARK   54  A    between atoms: _134  and  _135
REMARK   55  A    between atoms: _134  and  _137
REMARK   56  A    between atoms: _137  and  _138
REMARK   57  A    between atoms: _138  and  _139
REMARK   58  A    between atoms: _144  and  _146
REMARK   59  A    between atoms: _146  and  _147
REMARK   60  A    between atoms: _146  and  _149
REMARK   61  A    between atoms: _149  and  _150
REMARK   62  A    between atoms: _156  and  _158
REMARK   63  A    between atoms: _158  and  _159
REMARK   64  A    between atoms: _158  and  _161
REMARK   65  A    between atoms: _161  and  _162
REMARK   66  A    between atoms: _167  and  _168
REMARK   67  A    between atoms: _170  and  _172
REMARK   68  A    between atoms: _172  and  _173
REMARK   69  A    between atoms: _172  and  _175
REMARK   70  A    between atoms: _175  and  _176
REMARK   71  A    between atoms: _181  and  _182
REMARK   72  A    between atoms: _184  and  _186
REMARK   73  A    between atoms: _186  and  _187
REMARK   74  A    between atoms: _186  and  _189
REMARK   75  A    between atoms: _189  and  _190
REMARK   76  A    between atoms: _195  and  _197
REMARK   77  A    between atoms: _197  and  _198
REMARK   78  A    between atoms: _197  and  _200
REMARK   79  A    between atoms: _200  and  _201
REMARK   80  A    between atoms: _207  and  _209
REMARK   81  A    between atoms: _209  and  _210
REMARK   82  A    between atoms: _212  and  _214
REMARK   83  A    between atoms: _214  and  _215
REMARK   84  A    between atoms: _214  and  _217
REMARK   85  A    between atoms: _220  and  _222
REMARK   86  A    between atoms: _222  and  _223
REMARK   87  A    between atoms: _222  and  _225
REMARK   88  A    between atoms: _225  and  _226
REMARK   89  A    between atoms: _228  and  _230
REMARK   90  A    between atoms: _230  and  _231
REMARK   91  A    between atoms: _230  and  _233
REMARK   92  A    between atoms: _233  and  _234
REMARK   93  A    between atoms: _237  and  _239
REMARK   94  A    between atoms: _239  and  _240
REMARK   95  A    between atoms: _239  and  _242
REMARK   96  A    between atoms: _242  and  _243
REMARK   97  A    between atoms: _246  and  _248
REMARK   98  A    between atoms: _248  and  _249
REMARK   99  A    between atoms: _248  and  _251
REMARK  100  A    between atoms: _254  and  _256
REMARK  101  A    between atoms: _256  and  _257
REMARK  102  A    between atoms: _256  and  _259
REMARK  103  A    between atoms: _259  and  _260
REMARK  104  A    between atoms: _262  and  _264
REMARK  105  A    between atoms: _264  and  _265
REMARK  106  A    between atoms: _264  and  _267
REMARK  107  A    between atoms: _267  and  _268
REMARK  108  A    between atoms: _271  and  _273
REMARK  109  A    between atoms: _273  and  _274
REMARK  110  A    between atoms: _273  and  _276
REMARK  111  A    between atoms: _278  and  _280
REMARK  112  A    between atoms: _280  and  _281
REMARK  113  A    between atoms: _280  and  _283
REMARK  114  A    between atoms: _283  and  _284
REMARK  115  A    between atoms: _290  and  _292
REMARK  116  A    between atoms: _292  and  _293
REMARK  117  A    between atoms: _295  and  _297
REMARK  118  A    between atoms: _297  and  _298
REMARK  119  A    between atoms: _297  and  _300
REMARK  120  A    between atoms: _300  and  _301
REMARK  121  A    between atoms: _304  and  _306
REMARK  122  A    between atoms: _306  and  _307
REMARK  123  A    between atoms: _306  and  _309
REMARK  124  A    between atoms: _309  and  _310
REMARK  125  A    between atoms: _310  and  _311
REMARK  126  A    between atoms: _316  and  _318
REMARK  127  A    between atoms: _318  and  _319
REMARK  128  A    between atoms: _318  and  _321
REMARK  129  A    between atoms: _321  and  _322
REMARK                            x       y       z     vdW  Elec       q    Type
REMARK                         _______ _______ _______ _____ _____    ______ ____
ROOT
ATOM      1  O   HOH     1      12.255 -13.699   4.365  0.00  0.00    +0.000 OA
ENDROOT
TORSDOF 0
REMARK  Name = ../refined-set-2016/3guz/3guz_pocket.pdb
REMARK  129 active torsions:
REMARK  status: ('A' for Active; 'I' for Inactive)
REMARK    1  A    between atoms: _1  and  _3
REMARK    2  A    between atoms: _3  and  _4
REMARK    3  A    between atoms: _3  and  _6
REMARK    4  A    between atoms: _10  and  _11
REMARK    5  A    between atoms: _16  and  _18
REMARK    6  A    between atoms: _18  and  _19
REMARK    7  A    between atoms: _18  and  _21
REMARK    8  A    between atoms: _21  and  _22
REMARK    9  A    between atoms: _25  and  _27
REMARK   10  A    between atoms: _27  and  _28
REMARK   11  A    between atoms: _27  and  _30
REMARK   12  A    between atoms: _30  and  _31
REMARK   13  A    between atoms: _31  and  _32
REMARK   14  A    between atoms: _34  and  _36
REMARK   15  A    between atoms: _36  and  _37
REMARK   16  A    between atoms: _39  and  _41
REMARK   17  A    between atoms: _41  and  _42
REMARK   18  A    between atoms: _41  and  _44
REMARK   19  A    between atoms: _44  and  _45
REMARK   20  A    between atoms: _48  and  _50
REMARK   21  A    between atoms: _50  and  _51
REMARK   22  A    between atoms: _50  and  _53
REMARK   23  A    between atoms: _53  and  _54
REMARK   24  A    between atoms: _59  and  _61
REMARK   25  A    between atoms: _61  and  _62
REMARK   26  A    between atoms: _61  and  _64
REMARK   27  A    between atoms: _64  and  _65
REMARK   28  A    between atoms: _68  and  _70
REMARK   29  A    between atoms: _70  and  _71
REMARK   30  A    between atoms: _70  and  _73
REMARK   31  A    between atoms: _73  and  _74
REMARK   32  A    between atoms: _76  and  _78
REMARK   33  A    between atoms: _78  and  _79
REMARK   34  A    between atoms: _78  and  _81
REMARK   35  A    between atoms: _81  and  _82
REMARK   36  A    between atoms: _85  and  _87
REMARK   37  A    between atoms: _87  and  _88
REMARK   38  A    between atoms: _87  and  _90
REMARK   39  A    between atoms: _90  and  _91
REMARK   40  A    between atoms: _97  and  _99
REMARK   41  A    between atoms: _99  and  _100
REMARK   42  A    between atoms: _99  and  _102
REMARK   43  A    between atoms: _105  and  _107
REMARK   44  A    between atoms: _107  and  _108
REMARK   45  A    between atoms: _107  and  _110
REMARK   46  A    between atoms: _110  and  _111
REMARK   47  A    between atoms: _117  and  _118
REMARK   48  A    between atoms: _123  and  _125
REMARK   49  A    between atoms: _125  and  _126
REMARK   50  A    between atoms: _125  and  _128
REMARK   51  A    between atoms: _128  and  _129
REMARK   52  A    between atoms: _129  and  _130
REMARK   53  A    between atoms: _132  and  _134
REMARK   54  A    between atoms: _134  and  _135
REMARK   55  A    between atoms: _134  and  _137
REMARK   56  A    between atoms: _137  and  _138
REMARK   57  A    between atoms: _138  and  _139
REMARK   58  A    between atoms: _144  and  _146
REMARK   59  A    between atoms: _146  and  _147
REMARK   60  A    between atoms: _146  and  _149
REMARK   61  A    between atoms: _149  and  _150
REMARK   62  A    between atoms: _156  and  _158
REMARK   63  A    between atoms: _158  and  _159
REMARK   64  A    between atoms: _158  and  _161
REMARK   65  A    between atoms: _161  and  _162
REMARK   66  A    between atoms: _167  and  _168
REMARK   67  A    between atoms: _170  and  _172
REMARK   68  A    between atoms: _172  and  _173
REMARK   69  A    between atoms: _172  and  _175
REMARK   70  A    between atoms: _175  and  _176
REMARK   71  A    between atoms: _181  and  _182
REMARK   72  A    between atoms: _184  and  _186
REMARK   73  A    between atoms: _186  and  _187
REMARK   74  A    between atoms: _186  and  _189
REMARK   75  A    between atoms: _189  and  _190
REMARK   76  A    between atoms: _195  and  _197
REMARK   77  A    between atoms: _197  and  _198
REMARK   78  A    between atoms: _197  and  _200
REMARK   79  A    between atoms: _200  and  _201
REMARK   80  A    between atoms: _207  and  _209
REMARK   81  A    between atoms: _209  and  _210
REMARK   82  A    between atoms: _212  and  _214
REMARK   83  A    between atoms: _214  and  _215
REMARK   84  A    between atoms: _214  and  _217
REMARK   85  A    between atoms: _220  and  _222
REMARK   86  A    between atoms: _222  and  _223
REMARK   87  A    between atoms: _222  and  _225
REMARK   88  A    between atoms: _225  and  _226
REMARK   89  A    between atoms: _228  and  _230
REMARK   90  A    between atoms: _230  and  _231
REMARK   91  A    between atoms: _230  and  _233
REMARK   92  A    between atoms: _233  and  _234
REMARK   93  A    between atoms: _237  and  _239
REMARK   94  A    between atoms: _239  and  _240
REMARK   95  A    between atoms: _239  and  _242
REMARK   96  A    between atoms: _242  and  _243
REMARK   97  A    between atoms: _246  and  _248
REMARK   98  A    between atoms: _248  and  _249
REMARK   99  A    between atoms: _248  and  _251
REMARK  100  A    between atoms: _254  and  _256
REMARK  101  A    between atoms: _256  and  _257
REMARK  102  A    between atoms: _256  and  _259
REMARK  103  A    between atoms: _259  and  _260
REMARK  104  A    between atoms: _262  and  _264
REMARK  105  A    between atoms: _264  and  _265
REMARK  106  A    between atoms: _264  and  _267
REMARK  107  A    between atoms: _267  and  _268
REMARK  108  A    between atoms: _271  and  _273
REMARK  109  A    between atoms: _273  and  _274
REMARK  110  A    between atoms: _273  and  _276
REMARK  111  A    between atoms: _278  and  _280
REMARK  112  A    between atoms: _280  and  _281
REMARK  113  A    between atoms: _280  and  _283
REMARK  114  A    between atoms: _283  and  _284
REMARK  115  A    between atoms: _290  and  _292
REMARK  116  A    between atoms: _292  and  _293
REMARK  117  A    between atoms: _295  and  _297
REMARK  118  A    between atoms: _297  and  _298
REMARK  119  A    between atoms: _297  and  _300
REMARK  120  A    between atoms: _300  and  _301
REMARK  121  A    between atoms: _304  and  _306
REMARK  122  A    between atoms: _306  and  _307
REMARK  123  A    between atoms: _306  and  _309
REMARK  124  A    between atoms: _309  and  _310
REMARK  125  A    between atoms: _310  and  _311
REMARK  126  A    between atoms: _316  and  _318
REMARK  127  A    between atoms: _318  and  _319
REMARK  128  A    between atoms: _318  and  _321
REMARK  129  A    between atoms: _321  and  _322
REMARK                            x       y       z     vdW  Elec       q    Type
REMARK                         _______ _______ _______ _____ _____    ______ ____
ROOT
ATOM      1  O   HOH     1      10.639 -14.230   2.190  0.00  0.00    +0.000 OA
ENDROOT
TORSDOF 0
REMARK  Name = ../refined-set-2016/3guz/3guz_pocket.pdb
REMARK  129 active torsions:
REMARK  status: ('A' for Active; 'I' for Inactive)
REMARK    1  A    between atoms: _1  and  _3
REMARK    2  A    between atoms: _3  and  _4
REMARK    3  A    between atoms: _3  and  _6
REMARK    4  A    between atoms: _10  and  _11
REMARK    5  A    between atoms: _16  and  _18
REMARK    6  A    between atoms: _18  and  _19
REMARK    7  A    between atoms: _18  and  _21
REMARK    8  A    between atoms: _21  and  _22
REMARK    9  A    between atoms: _25  and  _27
REMARK   10  A    between atoms: _27  and  _28
REMARK   11  A    between atoms: _27  and  _30
REMARK   12  A    between atoms: _30  and  _31
REMARK   13  A    between atoms: _31  and  _32
REMARK   14  A    between atoms: _34  and  _36
REMARK   15  A    between atoms: _36  and  _37
REMARK   16  A    between atoms: _39  and  _41
REMARK   17  A    between atoms: _41  and  _42
REMARK   18  A    between atoms: _41  and  _44
REMARK   19  A    between atoms: _44  and  _45
REMARK   20  A    between atoms: _48  and  _50
REMARK   21  A    between atoms: _50  and  _51
REMARK   22  A    between atoms: _50  and  _53
REMARK   23  A    between atoms: _53  and  _54
REMARK   24  A    between atoms: _59  and  _61
REMARK   25  A    between atoms: _61  and  _62
REMARK   26  A    between atoms: _61  and  _64
REMARK   27  A    between atoms: _64  and  _65
REMARK   28  A    between atoms: _68  and  _70
REMARK   29  A    between atoms: _70  and  _71
REMARK   30  A    between atoms: _70  and  _73
REMARK   31  A    between atoms: _73  and  _74
REMARK   32  A    between atoms: _76  and  _78
REMARK   33  A    between atoms: _78  and  _79
REMARK   34  A    between atoms: _78  and  _81
REMARK   35  A    between atoms: _81  and  _82
REMARK   36  A    between atoms: _85  and  _87
REMARK   37  A    between atoms: _87  and  _88
REMARK   38  A    between atoms: _87  and  _90
REMARK   39  A    between atoms: _90  and  _91
REMARK   40  A    between atoms: _97  and  _99
REMARK   41  A    between atoms: _99  and  _100
REMARK   42  A    between atoms: _99  and  _102
REMARK   43  A    between atoms: _105  and  _107
REMARK   44  A    between atoms: _107  and  _108
REMARK   45  A    between atoms: _107  and  _110
REMARK   46  A    between atoms: _110  and  _111
REMARK   47  A    between atoms: _117  and  _118
REMARK   48  A    between atoms: _123  and  _125
REMARK   49  A    between atoms: _125  and  _126
REMARK   50  A    between atoms: _125  and  _128
REMARK   51  A    between atoms: _128  and  _129
REMARK   52  A    between atoms: _129  and  _130
REMARK   53  A    between atoms: _132  and  _134
REMARK   54  A    between atoms: _134  and  _135
REMARK   55  A    between atoms: _134  and  _137
REMARK   56  A    between atoms: _137  and  _138
REMARK   57  A    between atoms: _138  and  _139
REMARK   58  A    between atoms: _144  and  _146
REMARK   59  A    between atoms: _146  and  _147
REMARK   60  A    between atoms: _146  and  _149
REMARK   61  A    between atoms: _149  and  _150
REMARK   62  A    between atoms: _156  and  _158
REMARK   63  A    between atoms: _158  and  _159
REMARK   64  A    between atoms: _158  and  _161
REMARK   65  A    between atoms: _161  and  _162
REMARK   66  A    between atoms: _167  and  _168
REMARK   67  A    between atoms: _170  and  _172
REMARK   68  A    between atoms: _172  and  _173
REMARK   69  A    between atoms: _172  and  _175
REMARK   70  A    between atoms: _175  and  _176
REMARK   71  A    between atoms: _181  and  _182
REMARK   72  A    between atoms: _184  and  _186
REMARK   73  A    between atoms: _186  and  _187
REMARK   74  A    between atoms: _186  and  _189
REMARK   75  A    between atoms: _189  and  _190
REMARK   76  A    between atoms: _195  and  _197
REMARK   77  A    between atoms: _197  and  _198
REMARK   78  A    between atoms: _197  and  _200
REMARK   79  A    between atoms: _200  and  _201
REMARK   80  A    between atoms: _207  and  _209
REMARK   81  A    between atoms: _209  and  _210
REMARK   82  A    between atoms: _212  and  _214
REMARK   83  A    between atoms: _214  and  _215
REMARK   84  A    between atoms: _214  and  _217
REMARK   85  A    between atoms: _220  and  _222
REMARK   86  A    between atoms: _222  and  _223
REMARK   87  A    between atoms: _222  and  _225
REMARK   88  A    between atoms: _225  and  _226
REMARK   89  A    between atoms: _228  and  _230
REMARK   90  A    between atoms: _230  and  _231
REMARK   91  A    between atoms: _230  and  _233
REMARK   92  A    between atoms: _233  and  _234
REMARK   93  A    between atoms: _237  and  _239
REMARK   94  A    between atoms: _239  and  _240
REMARK   95  A    between atoms: _239  and  _242
REMARK   96  A    between atoms: _242  and  _243
REMARK   97  A    between atoms: _246  and  _248
REMARK   98  A    between atoms: _248  and  _249
REMARK   99  A    between atoms: _248  and  _251
REMARK  100  A    between atoms: _254  and  _256
REMARK  101  A    between atoms: _256  and  _257
REMARK  102  A    between atoms: _256  and  _259
REMARK  103  A    between atoms: _259  and  _260
REMARK  104  A    between atoms: _262  and  _264
REMARK  105  A    between atoms: _264  and  _265
REMARK  106  A    between atoms: _264  and  _267
REMARK  107  A    between atoms: _267  and  _268
REMARK  108  A    between atoms: _271  and  _273
REMARK  109  A    between atoms: _273  and  _274
REMARK  110  A    between atoms: _273  and  _276
REMARK  111  A    between atoms: _278  and  _280
REMARK  112  A    between atoms: _280  and  _281
REMARK  113  A    between atoms: _280  and  _283
REMARK  114  A    between atoms: _283  and  _284
REMARK  115  A    between atoms: _290  and  _292
REMARK  116  A    between atoms: _292  and  _293
REMARK  117  A    between atoms: _295  and  _297
REMARK  118  A    between atoms: _297  and  _298
REMARK  119  A    between atoms: _297  and  _300
REMARK  120  A    between atoms: _300  and  _301
REMARK  121  A    between atoms: _304  and  _306
REMARK  122  A    between atoms: _306  and  _307
REMARK  123  A    between atoms: _306  and  _309
REMARK  124  A    between atoms: _309  and  _310
REMARK  125  A    between atoms: _310  and  _311
REMARK  126  A    between atoms: _316  and  _318
REMARK  127  A    between atoms: _318  and  _319
REMARK  128  A    between atoms: _318  and  _321
REMARK  129  A    between atoms: _321  and  _322
REMARK                            x       y       z     vdW  Elec       q    Type
REMARK                         _______ _______ _______ _____ _____    ______ ____
ROOT
ATOM      1  O   HOH     1      13.787 -10.969   7.491  0.00  0.00    +0.000 OA
ENDROOT
TORSDOF 0
REMARK  Name = ../refined-set-2016/3guz/3guz_pocket.pdb
REMARK  129 active torsions:
REMARK  status: ('A' for Active; 'I' for Inactive)
REMARK    1  A    between atoms: _1  and  _3
REMARK    2  A    between atoms: _3  and  _4
REMARK    3  A    between atoms: _3  and  _6
REMARK    4  A    between atoms: _10  and  _11
REMARK    5  A    between atoms: _16  and  _18
REMARK    6  A    between atoms: _18  and  _19
REMARK    7  A    between atoms: _18  and  _21
REMARK    8  A    between atoms: _21  and  _22
REMARK    9  A    between atoms: _25  and  _27
REMARK   10  A    between atoms: _27  and  _28
REMARK   11  A    between atoms: _27  and  _30
REMARK   12  A    between atoms: _30  and  _31
REMARK   13  A    between atoms: _31  and  _32
REMARK   14  A    between atoms: _34  and  _36
REMARK   15  A    between atoms: _36  and  _37
REMARK   16  A    between atoms: _39  and  _41
REMARK   17  A    between atoms: _41  and  _42
REMARK   18  A    between atoms: _41  and  _44
REMARK   19  A    between atoms: _44  and  _45
REMARK   20  A    between atoms: _48  and  _50
REMARK   21  A    between atoms: _50  and  _51
REMARK   22  A    between atoms: _50  and  _53
REMARK   23  A    between atoms: _53  and  _54
REMARK   24  A    between atoms: _59  and  _61
REMARK   25  A    between atoms: _61  and  _62
REMARK   26  A    between atoms: _61  and  _64
REMARK   27  A    between atoms: _64  and  _65
REMARK   28  A    between atoms: _68  and  _70
REMARK   29  A    between atoms: _70  and  _71
REMARK   30  A    between atoms: _70  and  _73
REMARK   31  A    between atoms: _73  and  _74
REMARK   32  A    between atoms: _76  and  _78
REMARK   33  A    between atoms: _78  and  _79
REMARK   34  A    between atoms: _78  and  _81
REMARK   35  A    between atoms: _81  and  _82
REMARK   36  A    between atoms: _85  and  _87
REMARK   37  A    between atoms: _87  and  _88
REMARK   38  A    between atoms: _87  and  _90
REMARK   39  A    between atoms: _90  and  _91
REMARK   40  A    between atoms: _97  and  _99
REMARK   41  A    between atoms: _99  and  _100
REMARK   42  A    between atoms: _99  and  _102
REMARK   43  A    between atoms: _105  and  _107
REMARK   44  A    between atoms: _107  and  _108
REMARK   45  A    between atoms: _107  and  _110
REMARK   46  A    between atoms: _110  and  _111
REMARK   47  A    between atoms: _117  and  _118
REMARK   48  A    between atoms: _123  and  _125
REMARK   49  A    between atoms: _125  and  _126
REMARK   50  A    between atoms: _125  and  _128
REMARK   51  A    between atoms: _128  and  _129
REMARK   52  A    between atoms: _129  and  _130
REMARK   53  A    between atoms: _132  and  _134
REMARK   54  A    between atoms: _134  and  _135
REMARK   55  A    between atoms: _134  and  _137
REMARK   56  A    between atoms: _137  and  _138
REMARK   57  A    between atoms: _138  and  _139
REMARK   58  A    between atoms: _144  and  _146
REMARK   59  A    between atoms: _146  and  _147
REMARK   60  A    between atoms: _146  and  _149
REMARK   61  A    between atoms: _149  and  _150
REMARK   62  A    between atoms: _156  and  _158
REMARK   63  A    between atoms: _158  and  _159
REMARK   64  A    between atoms: _158  and  _161
REMARK   65  A    between atoms: _161  and  _162
REMARK   66  A    between atoms: _167  and  _168
REMARK   67  A    between atoms: _170  and  _172
REMARK   68  A    between atoms: _172  and  _173
REMARK   69  A    between atoms: _172  and  _175
REMARK   70  A    between atoms: _175  and  _176
REMARK   71  A    between atoms: _181  and  _182
REMARK   72  A    between atoms: _184  and  _186
REMARK   73  A    between atoms: _186  and  _187
REMARK   74  A    between atoms: _186  and  _189
REMARK   75  A    between atoms: _189  and  _190
REMARK   76  A    between atoms: _195  and  _197
REMARK   77  A    between atoms: _197  and  _198
REMARK   78  A    between atoms: _197  and  _200
REMARK   79  A    between atoms: _200  and  _201
REMARK   80  A    between atoms: _207  and  _209
REMARK   81  A    between atoms: _209  and  _210
REMARK   82  A    between atoms: _212  and  _214
REMARK   83  A    between atoms: _214  and  _215
REMARK   84  A    between atoms: _214  and  _217
REMARK   85  A    between atoms: _220  and  _222
REMARK   86  A    between atoms: _222  and  _223
REMARK   87  A    between atoms: _222  and  _225
REMARK   88  A    between atoms: _225  and  _226
REMARK   89  A    between atoms: _228  and  _230
REMARK   90  A    between atoms: _230  and  _231
REMARK   91  A    between atoms: _230  and  _233
REMARK   92  A    between atoms: _233  and  _234
REMARK   93  A    between atoms: _237  and  _239
REMARK   94  A    between atoms: _239  and  _240
REMARK   95  A    between atoms: _239  and  _242
REMARK   96  A    between atoms: _242  and  _243
REMARK   97  A    between atoms: _246  and  _248
REMARK   98  A    between atoms: _248  and  _249
REMARK   99  A    between atoms: _248  and  _251
REMARK  100  A    between atoms: _254  and  _256
REMARK  101  A    between atoms: _256  and  _257
REMARK  102  A    between atoms: _256  and  _259
REMARK  103  A    between atoms: _259  and  _260
REMARK  104  A    between atoms: _262  and  _264
REMARK  105  A    between atoms: _264  and  _265
REMARK  106  A    between atoms: _264  and  _267
REMARK  107  A    between atoms: _267  and  _268
REMARK  108  A    between atoms: _271  and  _273
REMARK  109  A    between atoms: _273  and  _274
REMARK  110  A    between atoms: _273  and  _276
REMARK  111  A    between atoms: _278  and  _280
REMARK  112  A    between atoms: _280  and  _281
REMARK  113  A    between atoms: _280  and  _283
REMARK  114  A    between atoms: _283  and  _284
REMARK  115  A    between atoms: _290  and  _292
REMARK  116  A    between atoms: _292  and  _293
REMARK  117  A    between atoms: _295  and  _297
REMARK  118  A    between atoms: _297  and  _298
REMARK  119  A    between atoms: _297  and  _300
REMARK  120  A    between atoms: _300  and  _301
REMARK  121  A    between atoms: _304  and  _306
REMARK  122  A    between atoms: _306  and  _307
REMARK  123  A    between atoms: _306  and  _309
REMARK  124  A    between atoms: _309  and  _310
REMARK  125  A    between atoms: _310  and  _311
REMARK  126  A    between atoms: _316  and  _318
REMARK  127  A    between atoms: _318  and  _319
REMARK  128  A    between atoms: _318  and  _321
REMARK  129  A    between atoms: _321  and  _322
REMARK                            x       y       z     vdW  Elec       q    Type
REMARK                         _______ _______ _______ _____ _____    ______ ____
ROOT
ATOM      1  O   HOH     1      14.281  -7.156  -0.621  0.00  0.00    +0.000 OA
ENDROOT
TORSDOF 0
REMARK  Name = ../refined-set-2016/3guz/3guz_pocket.pdb
REMARK  129 active torsions:
REMARK  status: ('A' for Active; 'I' for Inactive)
REMARK    1  A    between atoms: _1  and  _3
REMARK    2  A    between atoms: _3  and  _4
REMARK    3  A    between atoms: _3  and  _6
REMARK    4  A    between atoms: _10  and  _11
REMARK    5  A    between atoms: _16  and  _18
REMARK    6  A    between atoms: _18  and  _19
REMARK    7  A    between atoms: _18  and  _21
REMARK    8  A    between atoms: _21  and  _22
REMARK    9  A    between atoms: _25  and  _27
REMARK   10  A    between atoms: _27  and  _28
REMARK   11  A    between atoms: _27  and  _30
REMARK   12  A    between atoms: _30  and  _31
REMARK   13  A    between atoms: _31  and  _32
REMARK   14  A    between atoms: _34  and  _36
REMARK   15  A    between atoms: _36  and  _37
REMARK   16  A    between atoms: _39  and  _41
REMARK   17  A    between atoms: _41  and  _42
REMARK   18  A    between atoms: _41  and  _44
REMARK   19  A    between atoms: _44  and  _45
REMARK   20  A    between atoms: _48  and  _50
REMARK   21  A    between atoms: _50  and  _51
REMARK   22  A    between atoms: _50  and  _53
REMARK   23  A    between atoms: _53  and  _54
REMARK   24  A    between atoms: _59  and  _61
REMARK   25  A    between atoms: _61  and  _62
REMARK   26  A    between atoms: _61  and  _64
REMARK   27  A    between atoms: _64  and  _65
REMARK   28  A    between atoms: _68  and  _70
REMARK   29  A    between atoms: _70  and  _71
REMARK   30  A    between atoms: _70  and  _73
REMARK   31  A    between atoms: _73  and  _74
REMARK   32  A    between atoms: _76  and  _78
REMARK   33  A    between atoms: _78  and  _79
REMARK   34  A    between atoms: _78  and  _81
REMARK   35  A    between atoms: _81  and  _82
REMARK   36  A    between atoms: _85  and  _87
REMARK   37  A    between atoms: _87  and  _88
REMARK   38  A    between atoms: _87  and  _90
REMARK   39  A    between atoms: _90  and  _91
REMARK   40  A    between atoms: _97  and  _99
REMARK   41  A    between atoms: _99  and  _100
REMARK   42  A    between atoms: _99  and  _102
REMARK   43  A    between atoms: _105  and  _107
REMARK   44  A    between atoms: _107  and  _108
REMARK   45  A    between atoms: _107  and  _110
REMARK   46  A    between atoms: _110  and  _111
REMARK   47  A    between atoms: _117  and  _118
REMARK   48  A    between atoms: _123  and  _125
REMARK   49  A    between atoms: _125  and  _126
REMARK   50  A    between atoms: _125  and  _128
REMARK   51  A    between atoms: _128  and  _129
REMARK   52  A    between atoms: _129  and  _130
REMARK   53  A    between atoms: _132  and  _134
REMARK   54  A    between atoms: _134  and  _135
REMARK   55  A    between atoms: _134  and  _137
REMARK   56  A    between atoms: _137  and  _138
REMARK   57  A    between atoms: _138  and  _139
REMARK   58  A    between atoms: _144  and  _146
REMARK   59  A    between atoms: _146  and  _147
REMARK   60  A    between atoms: _146  and  _149
REMARK   61  A    between atoms: _149  and  _150
REMARK   62  A    between atoms: _156  and  _158
REMARK   63  A    between atoms: _158  and  _159
REMARK   64  A    between atoms: _158  and  _161
REMARK   65  A    between atoms: _161  and  _162
REMARK   66  A    between atoms: _167  and  _168
REMARK   67  A    between atoms: _170  and  _172
REMARK   68  A    between atoms: _172  and  _173
REMARK   69  A    between atoms: _172  and  _175
REMARK   70  A    between atoms: _175  and  _176
REMARK   71  A    between atoms: _181  and  _182
REMARK   72  A    between atoms: _184  and  _186
REMARK   73  A    between atoms: _186  and  _187
REMARK   74  A    between atoms: _186  and  _189
REMARK   75  A    between atoms: _189  and  _190
REMARK   76  A    between atoms: _195  and  _197
REMARK   77  A    between atoms: _197  and  _198
REMARK   78  A    between atoms: _197  and  _200
REMARK   79  A    between atoms: _200  and  _201
REMARK   80  A    between atoms: _207  and  _209
REMARK   81  A    between atoms: _209  and  _210
REMARK   82  A    between atoms: _212  and  _214
REMARK   83  A    between atoms: _214  and  _215
REMARK   84  A    between atoms: _214  and  _217
REMARK   85  A    between atoms: _220  and  _222
REMARK   86  A    between atoms: _222  and  _223
REMARK   87  A    between atoms: _222  and  _225
REMARK   88  A    between atoms: _225  and  _226
REMARK   89  A    between atoms: _228  and  _230
REMARK   90  A    between atoms: _230  and  _231
REMARK   91  A    between atoms: _230  and  _233
REMARK   92  A    between atoms: _233  and  _234
REMARK   93  A    between atoms: _237  and  _239
REMARK   94  A    between atoms: _239  and  _240
REMARK   95  A    between atoms: _239  and  _242
REMARK   96  A    between atoms: _242  and  _243
REMARK   97  A    between atoms: _246  and  _248
REMARK   98  A    between atoms: _248  and  _249
REMARK   99  A    between atoms: _248  and  _251
REMARK  100  A    between atoms: _254  and  _256
REMARK  101  A    between atoms: _256  and  _257
REMARK  102  A    between atoms: _256  and  _259
REMARK  103  A    between atoms: _259  and  _260
REMARK  104  A    between atoms: _262  and  _264
REMARK  105  A    between atoms: _264  and  _265
REMARK  106  A    between atoms: _264  and  _267
REMARK  107  A    between atoms: _267  and  _268
REMARK  108  A    between atoms: _271  and  _273
REMARK  109  A    between atoms: _273  and  _274
REMARK  110  A    between atoms: _273  and  _276
REMARK  111  A    between atoms: _278  and  _280
REMARK  112  A    between atoms: _280  and  _281
REMARK  113  A    between atoms: _280  and  _283
REMARK  114  A    between atoms: _283  and  _284
REMARK  115  A    between atoms: _290  and  _292
REMARK  116  A    between atoms: _292  and  _293
REMARK  117  A    between atoms: _295  and  _297
REMARK  118  A    between atoms: _297  and  _298
REMARK  119  A    between atoms: _297  and  _300
REMARK  120  A    between atoms: _300  and  _301
REMARK  121  A    between atoms: _304  and  _306
REMARK  122  A    between atoms: _306  and  _307
REMARK  123  A    between atoms: _306  and  _309
REMARK  124  A    between atoms: _309  and  _310
REMARK  125  A    between atoms: _310  and  _311
REMARK  126  A    between atoms: _316  and  _318
REMARK  127  A    between atoms: _318  and  _319
REMARK  128  A    between atoms: _318  and  _321
REMARK  129  A    between atoms: _321  and  _322
REMARK                            x       y       z     vdW  Elec       q    Type
REMARK                         _______ _______ _______ _____ _____    ______ ____
ROOT
ATOM      1  O   HOH     1       3.991  -9.790   1.412  0.00  0.00    +0.000 OA
ENDROOT
TORSDOF 0
REMARK  Name = ../refined-set-2016/3guz/3guz_pocket.pdb
REMARK  129 active torsions:
REMARK  status: ('A' for Active; 'I' for Inactive)
REMARK    1  A    between atoms: _1  and  _3
REMARK    2  A    between atoms: _3  and  _4
REMARK    3  A    between atoms: _3  and  _6
REMARK    4  A    between atoms: _10  and  _11
REMARK    5  A    between atoms: _16  and  _18
REMARK    6  A    between atoms: _18  and  _19
REMARK    7  A    between atoms: _18  and  _21
REMARK    8  A    between atoms: _21  and  _22
REMARK    9  A    between atoms: _25  and  _27
REMARK   10  A    between atoms: _27  and  _28
REMARK   11  A    between atoms: _27  and  _30
REMARK   12  A    between atoms: _30  and  _31
REMARK   13  A    between atoms: _31  and  _32
REMARK   14  A    between atoms: _34  and  _36
REMARK   15  A    between atoms: _36  and  _37
REMARK   16  A    between atoms: _39  and  _41
REMARK   17  A    between atoms: _41  and  _42
REMARK   18  A    between atoms: _41  and  _44
REMARK   19  A    between atoms: _44  and  _45
REMARK   20  A    between atoms: _48  and  _50
REMARK   21  A    between atoms: _50  and  _51
REMARK   22  A    between atoms: _50  and  _53
REMARK   23  A    between atoms: _53  and  _54
REMARK   24  A    between atoms: _59  and  _61
REMARK   25  A    between atoms: _61  and  _62
REMARK   26  A    between atoms: _61  and  _64
REMARK   27  A    between atoms: _64  and  _65
REMARK   28  A    between atoms: _68  and  _70
REMARK   29  A    between atoms: _70  and  _71
REMARK   30  A    between atoms: _70  and  _73
REMARK   31  A    between atoms: _73  and  _74
REMARK   32  A    between atoms: _76  and  _78
REMARK   33  A    between atoms: _78  and  _79
REMARK   34  A    between atoms: _78  and  _81
REMARK   35  A    between atoms: _81  and  _82
REMARK   36  A    between atoms: _85  and  _87
REMARK   37  A    between atoms: _87  and  _88
REMARK   38  A    between atoms: _87  and  _90
REMARK   39  A    between atoms: _90  and  _91
REMARK   40  A    between atoms: _97  and  _99
REMARK   41  A    between atoms: _99  and  _100
REMARK   42  A    between atoms: _99  and  _102
REMARK   43  A    between atoms: _105  and  _107
REMARK   44  A    between atoms: _107  and  _108
REMARK   45  A    between atoms: _107  and  _110
REMARK   46  A    between atoms: _110  and  _111
REMARK   47  A    between atoms: _117  and  _118
REMARK   48  A    between atoms: _123  and  _125
REMARK   49  A    between atoms: _125  and  _126
REMARK   50  A    between atoms: _125  and  _128
REMARK   51  A    between atoms: _128  and  _129
REMARK   52  A    between atoms: _129  and  _130
REMARK   53  A    between atoms: _132  and  _134
REMARK   54  A    between atoms: _134  and  _135
REMARK   55  A    between atoms: _134  and  _137
REMARK   56  A    between atoms: _137  and  _138
REMARK   57  A    between atoms: _138  and  _139
REMARK   58  A    between atoms: _144  and  _146
REMARK   59  A    between atoms: _146  and  _147
REMARK   60  A    between atoms: _146  and  _149
REMARK   61  A    between atoms: _149  and  _150
REMARK   62  A    between atoms: _156  and  _158
REMARK   63  A    between atoms: _158  and  _159
REMARK   64  A    between atoms: _158  and  _161
REMARK   65  A    between atoms: _161  and  _162
REMARK   66  A    between atoms: _167  and  _168
REMARK   67  A    between atoms: _170  and  _172
REMARK   68  A    between atoms: _172  and  _173
REMARK   69  A    between atoms: _172  and  _175
REMARK   70  A    between atoms: _175  and  _176
REMARK   71  A    between atoms: _181  and  _182
REMARK   72  A    between atoms: _184  and  _186
REMARK   73  A    between atoms: _186  and  _187
REMARK   74  A    between atoms: _186  and  _189
REMARK   75  A    between atoms: _189  and  _190
REMARK   76  A    between atoms: _195  and  _197
REMARK   77  A    between atoms: _197  and  _198
REMARK   78  A    between atoms: _197  and  _200
REMARK   79  A    between atoms: _200  and  _201
REMARK   80  A    between atoms: _207  and  _209
REMARK   81  A    between atoms: _209  and  _210
REMARK   82  A    between atoms: _212  and  _214
REMARK   83  A    between atoms: _214  and  _215
REMARK   84  A    between atoms: _214  and  _217
REMARK   85  A    between atoms: _220  and  _222
REMARK   86  A    between atoms: _222  and  _223
REMARK   87  A    between atoms: _222  and  _225
REMARK   88  A    between atoms: _225  and  _226
REMARK   89  A    between atoms: _228  and  _230
REMARK   90  A    between atoms: _230  and  _231
REMARK   91  A    between atoms: _230  and  _233
REMARK   92  A    between atoms: _233  and  _234
REMARK   93  A    between atoms: _237  and  _239
REMARK   94  A    between atoms: _239  and  _240
REMARK   95  A    between atoms: _239  and  _242
REMARK   96  A    between atoms: _242  and  _243
REMARK   97  A    between atoms: _246  and  _248
REMARK   98  A    between atoms: _248  and  _249
REMARK   99  A    between atoms: _248  and  _251
REMARK  100  A    between atoms: _254  and  _256
REMARK  101  A    between atoms: _256  and  _257
REMARK  102  A    between atoms: _256  and  _259
REMARK  103  A    between atoms: _259  and  _260
REMARK  104  A    between atoms: _262  and  _264
REMARK  105  A    between atoms: _264  and  _265
REMARK  106  A    between atoms: _264  and  _267
REMARK  107  A    between atoms: _267  and  _268
REMARK  108  A    between atoms: _271  and  _273
REMARK  109  A    between atoms: _273  and  _274
REMARK  110  A    between atoms: _273  and  _276
REMARK  111  A    between atoms: _278  and  _280
REMARK  112  A    between atoms: _280  and  _281
REMARK  113  A    between atoms: _280  and  _283
REMARK  114  A    between atoms: _283  and  _284
REMARK  115  A    between atoms: _290  and  _292
REMARK  116  A    between atoms: _292  and  _293
REMARK  117  A    between atoms: _295  and  _297
REMARK  118  A    between atoms: _297  and  _298
REMARK  119  A    between atoms: _297  and  _300
REMARK  120  A    between atoms: _300  and  _301
REMARK  121  A    between atoms: _304  and  _306
REMARK  122  A    between atoms: _306  and  _307
REMARK  123  A    between atoms: _306  and  _309
REMARK  124  A    between atoms: _309  and  _310
REMARK  125  A    between atoms: _310  and  _311
REMARK  126  A    between atoms: _316  and  _318
REMARK  127  A    between atoms: _318  and  _319
REMARK  128  A    between atoms: _318  and  _321
REMARK  129  A    between atoms: _321  and  _322
REMARK                            x       y       z     vdW  Elec       q    Type
REMARK                         _______ _______ _______ _____ _____    ______ ____
ROOT
ATOM      1  O   HOH     1       9.273  -6.699  -2.945  0.00  0.00    +0.000 OA
ENDROOT
TORSDOF 0
REMARK  Name = ../refined-set-2016/3guz/3guz_pocket.pdb
REMARK  129 active torsions:
REMARK  status: ('A' for Active; 'I' for Inactive)
REMARK    1  A    between atoms: _1  and  _3
REMARK    2  A    between atoms: _3  and  _4
REMARK    3  A    between atoms: _3  and  _6
REMARK    4  A    between atoms: _10  and  _11
REMARK    5  A    between atoms: _16  and  _18
REMARK    6  A    between atoms: _18  and  _19
REMARK    7  A    between atoms: _18  and  _21
REMARK    8  A    between atoms: _21  and  _22
REMARK    9  A    between atoms: _25  and  _27
REMARK   10  A    between atoms: _27  and  _28
REMARK   11  A    between atoms: _27  and  _30
REMARK   12  A    between atoms: _30  and  _31
REMARK   13  A    between atoms: _31  and  _32
REMARK   14  A    between atoms: _34  and  _36
REMARK   15  A    between atoms: _36  and  _37
REMARK   16  A    between atoms: _39  and  _41
REMARK   17  A    between atoms: _41  and  _42
REMARK   18  A    between atoms: _41  and  _44
REMARK   19  A    between atoms: _44  and  _45
REMARK   20  A    between atoms: _48  and  _50
REMARK   21  A    between atoms: _50  and  _51
REMARK   22  A    between atoms: _50  and  _53
REMARK   23  A    between atoms: _53  and  _54
REMARK   24  A    between atoms: _59  and  _61
REMARK   25  A    between atoms: _61  and  _62
REMARK   26  A    between atoms: _61  and  _64
REMARK   27  A    between atoms: _64  and  _65
REMARK   28  A    between atoms: _68  and  _70
REMARK   29  A    between atoms: _70  and  _71
REMARK   30  A    between atoms: _70  and  _73
REMARK   31  A    between atoms: _73  and  _74
REMARK   32  A    between atoms: _76  and  _78
REMARK   33  A    between atoms: _78  and  _79
REMARK   34  A    between atoms: _78  and  _81
REMARK   35  A    between atoms: _81  and  _82
REMARK   36  A    between atoms: _85  and  _87
REMARK   37  A    between atoms: _87  and  _88
REMARK   38  A    between atoms: _87  and  _90
REMARK   39  A    between atoms: _90  and  _91
REMARK   40  A    between atoms: _97  and  _99
REMARK   41  A    between atoms: _99  and  _100
REMARK   42  A    between atoms: _99  and  _102
REMARK   43  A    between atoms: _105  and  _107
REMARK   44  A    between atoms: _107  and  _108
REMARK   45  A    between atoms: _107  and  _110
REMARK   46  A    between atoms: _110  and  _111
REMARK   47  A    between atoms: _117  and  _118
REMARK   48  A    between atoms: _123  and  _125
REMARK   49  A    between atoms: _125  and  _126
REMARK   50  A    between atoms: _125  and  _128
REMARK   51  A    between atoms: _128  and  _129
REMARK   52  A    between atoms: _129  and  _130
REMARK   53  A    between atoms: _132  and  _134
REMARK   54  A    between atoms: _134  and  _135
REMARK   55  A    between atoms: _134  and  _137
REMARK   56  A    between atoms: _137  and  _138
REMARK   57  A    between atoms: _138  and  _139
REMARK   58  A    between atoms: _144  and  _146
REMARK   59  A    between atoms: _146  and  _147
REMARK   60  A    between atoms: _146  and  _149
REMARK   61  A    between atoms: _149  and  _150
REMARK   62  A    between atoms: _156  and  _158
REMARK   63  A    between atoms: _158  and  _159
REMARK   64  A    between atoms: _158  and  _161
REMARK   65  A    between atoms: _161  and  _162
REMARK   66  A    between atoms: _167  and  _168
REMARK   67  A    between atoms: _170  and  _172
REMARK   68  A    between atoms: _172  and  _173
REMARK   69  A    between atoms: _172  and  _175
REMARK   70  A    between atoms: _175  and  _176
REMARK   71  A    between atoms: _181  and  _182
REMARK   72  A    between atoms: _184  and  _186
REMARK   73  A    between atoms: _186  and  _187
REMARK   74  A    between atoms: _186  and  _189
REMARK   75  A    between atoms: _189  and  _190
REMARK   76  A    between atoms: _195  and  _197
REMARK   77  A    between atoms: _197  and  _198
REMARK   78  A    between atoms: _197  and  _200
REMARK   79  A    between atoms: _200  and  _201
REMARK   80  A    between atoms: _207  and  _209
REMARK   81  A    between atoms: _209  and  _210
REMARK   82  A    between atoms: _212  and  _214
REMARK   83  A    between atoms: _214  and  _215
REMARK   84  A    between atoms: _214  and  _217
REMARK   85  A    between atoms: _220  and  _222
REMARK   86  A    between atoms: _222  and  _223
REMARK   87  A    between atoms: _222  and  _225
REMARK   88  A    between atoms: _225  and  _226
REMARK   89  A    between atoms: _228  and  _230
REMARK   90  A    between atoms: _230  and  _231
REMARK   91  A    between atoms: _230  and  _233
REMARK   92  A    between atoms: _233  and  _234
REMARK   93  A    between atoms: _237  and  _239
REMARK   94  A    between atoms: _239  and  _240
REMARK   95  A    between atoms: _239  and  _242
REMARK   96  A    between atoms: _242  and  _243
REMARK   97  A    between atoms: _246  and  _248
REMARK   98  A    between atoms: _248  and  _249
REMARK   99  A    between atoms: _248  and  _251
REMARK  100  A    between atoms: _254  and  _256
REMARK  101  A    between atoms: _256  and  _257
REMARK  102  A    between atoms: _256  and  _259
REMARK  103  A    between atoms: _259  and  _260
REMARK  104  A    between atoms: _262  and  _264
REMARK  105  A    between atoms: _264  and  _265
REMARK  106  A    between atoms: _264  and  _267
REMARK  107  A    between atoms: _267  and  _268
REMARK  108  A    between atoms: _271  and  _273
REMARK  109  A    between atoms: _273  and  _274
REMARK  110  A    between atoms: _273  and  _276
REMARK  111  A    between atoms: _278  and  _280
REMARK  112  A    between atoms: _280  and  _281
REMARK  113  A    between atoms: _280  and  _283
REMARK  114  A    between atoms: _283  and  _284
REMARK  115  A    between atoms: _290  and  _292
REMARK  116  A    between atoms: _292  and  _293
REMARK  117  A    between atoms: _295  and  _297
REMARK  118  A    between atoms: _297  and  _298
REMARK  119  A    between atoms: _297  and  _300
REMARK  120  A    between atoms: _300  and  _301
REMARK  121  A    between atoms: _304  and  _306
REMARK  122  A    between atoms: _306  and  _307
REMARK  123  A    between atoms: _306  and  _309
REMARK  124  A    between atoms: _309  and  _310
REMARK  125  A    between atoms: _310  and  _311
REMARK  126  A    between atoms: _316  and  _318
REMARK  127  A    between atoms: _318  and  _319
REMARK  128  A    between atoms: _318  and  _321
REMARK  129  A    between atoms: _321  and  _322
REMARK                            x       y       z     vdW  Elec       q    Type
REMARK                         _______ _______ _______ _____ _____    ______ ____
ROOT
ATOM      1  O   HOH     1       9.746 -10.999   6.914  0.00  0.00    +0.000 OA
ENDROOT
TORSDOF 0
REMARK  Name = ../refined-set-2016/3guz/3guz_pocket.pdb
REMARK  129 active torsions:
REMARK  status: ('A' for Active; 'I' for Inactive)
REMARK    1  A    between atoms: _1  and  _3
REMARK    2  A    between atoms: _3  and  _4
REMARK    3  A    between atoms: _3  and  _6
REMARK    4  A    between atoms: _10  and  _11
REMARK    5  A    between atoms: _16  and  _18
REMARK    6  A    between atoms: _18  and  _19
REMARK    7  A    between atoms: _18  and  _21
REMARK    8  A    between atoms: _21  and  _22
REMARK    9  A    between atoms: _25  and  _27
REMARK   10  A    between atoms: _27  and  _28
REMARK   11  A    between atoms: _27  and  _30
REMARK   12  A    between atoms: _30  and  _31
REMARK   13  A    between atoms: _31  and  _32
REMARK   14  A    between atoms: _34  and  _36
REMARK   15  A    between atoms: _36  and  _37
REMARK   16  A    between atoms: _39  and  _41
REMARK   17  A    between atoms: _41  and  _42
REMARK   18  A    between atoms: _41  and  _44
REMARK   19  A    between atoms: _44  and  _45
REMARK   20  A    between atoms: _48  and  _50
REMARK   21  A    between atoms: _50  and  _51
REMARK   22  A    between atoms: _50  and  _53
REMARK   23  A    between atoms: _53  and  _54
REMARK   24  A    between atoms: _59  and  _61
REMARK   25  A    between atoms: _61  and  _62
REMARK   26  A    between atoms: _61  and  _64
REMARK   27  A    between atoms: _64  and  _65
REMARK   28  A    between atoms: _68  and  _70
REMARK   29  A    between atoms: _70  and  _71
REMARK   30  A    between atoms: _70  and  _73
REMARK   31  A    between atoms: _73  and  _74
REMARK   32  A    between atoms: _76  and  _78
REMARK   33  A    between atoms: _78  and  _79
REMARK   34  A    between atoms: _78  and  _81
REMARK   35  A    between atoms: _81  and  _82
REMARK   36  A    between atoms: _85  and  _87
REMARK   37  A    between atoms: _87  and  _88
REMARK   38  A    between atoms: _87  and  _90
REMARK   39  A    between atoms: _90  and  _91
REMARK   40  A    between atoms: _97  and  _99
REMARK   41  A    between atoms: _99  and  _100
REMARK   42  A    between atoms: _99  and  _102
REMARK   43  A    between atoms: _105  and  _107
REMARK   44  A    between atoms: _107  and  _108
REMARK   45  A    between atoms: _107  and  _110
REMARK   46  A    between atoms: _110  and  _111
REMARK   47  A    between atoms: _117  and  _118
REMARK   48  A    between atoms: _123  and  _125
REMARK   49  A    between atoms: _125  and  _126
REMARK   50  A    between atoms: _125  and  _128
REMARK   51  A    between atoms: _128  and  _129
REMARK   52  A    between atoms: _129  and  _130
REMARK   53  A    between atoms: _132  and  _134
REMARK   54  A    between atoms: _134  and  _135
REMARK   55  A    between atoms: _134  and  _137
REMARK   56  A    between atoms: _137  and  _138
REMARK   57  A    between atoms: _138  and  _139
REMARK   58  A    between atoms: _144  and  _146
REMARK   59  A    between atoms: _146  and  _147
REMARK   60  A    between atoms: _146  and  _149
REMARK   61  A    between atoms: _149  and  _150
REMARK   62  A    between atoms: _156  and  _158
REMARK   63  A    between atoms: _158  and  _159
REMARK   64  A    between atoms: _158  and  _161
REMARK   65  A    between atoms: _161  and  _162
REMARK   66  A    between atoms: _167  and  _168
REMARK   67  A    between atoms: _170  and  _172
REMARK   68  A    between atoms: _172  and  _173
REMARK   69  A    between atoms: _172  and  _175
REMARK   70  A    between atoms: _175  and  _176
REMARK   71  A    between atoms: _181  and  _182
REMARK   72  A    between atoms: _184  and  _186
REMARK   73  A    between atoms: _186  and  _187
REMARK   74  A    between atoms: _186  and  _189
REMARK   75  A    between atoms: _189  and  _190
REMARK   76  A    between atoms: _195  and  _197
REMARK   77  A    between atoms: _197  and  _198
REMARK   78  A    between atoms: _197  and  _200
REMARK   79  A    between atoms: _200  and  _201
REMARK   80  A    between atoms: _207  and  _209
REMARK   81  A    between atoms: _209  and  _210
REMARK   82  A    between atoms: _212  and  _214
REMARK   83  A    between atoms: _214  and  _215
REMARK   84  A    between atoms: _214  and  _217
REMARK   85  A    between atoms: _220  and  _222
REMARK   86  A    between atoms: _222  and  _223
REMARK   87  A    between atoms: _222  and  _225
REMARK   88  A    between atoms: _225  and  _226
REMARK   89  A    between atoms: _228  and  _230
REMARK   90  A    between atoms: _230  and  _231
REMARK   91  A    between atoms: _230  and  _233
REMARK   92  A    between atoms: _233  and  _234
REMARK   93  A    between atoms: _237  and  _239
REMARK   94  A    between atoms: _239  and  _240
REMARK   95  A    between atoms: _239  and  _242
REMARK   96  A    between atoms: _242  and  _243
REMARK   97  A    between atoms: _246  and  _248
REMARK   98  A    between atoms: _248  and  _249
REMARK   99  A    between atoms: _248  and  _251
REMARK  100  A    between atoms: _254  and  _256
REMARK  101  A    between atoms: _256  and  _257
REMARK  102  A    between atoms: _256  and  _259
REMARK  103  A    between atoms: _259  and  _260
REMARK  104  A    between atoms: _262  and  _264
REMARK  105  A    between atoms: _264  and  _265
REMARK  106  A    between atoms: _264  and  _267
REMARK  107  A    between atoms: _267  and  _268
REMARK  108  A    between atoms: _271  and  _273
REMARK  109  A    between atoms: _273  and  _274
REMARK  110  A    between atoms: _273  and  _276
REMARK  111  A    between atoms: _278  and  _280
REMARK  112  A    between atoms: _280  and  _281
REMARK  113  A    between atoms: _280  and  _283
REMARK  114  A    between atoms: _283  and  _284
REMARK  115  A    between atoms: _290  and  _292
REMARK  116  A    between atoms: _292  and  _293
REMARK  117  A    between atoms: _295  and  _297
REMARK  118  A    between atoms: _297  and  _298
REMARK  119  A    between atoms: _297  and  _300
REMARK  120  A    between atoms: _300  and  _301
REMARK  121  A    between atoms: _304  and  _306
REMARK  122  A    between atoms: _306  and  _307
REMARK  123  A    between atoms: _306  and  _309
REMARK  124  A    between atoms: _309  and  _310
REMARK  125  A    between atoms: _310  and  _311
REMARK  126  A    between atoms: _316  and  _318
REMARK  127  A    between atoms: _318  and  _319
REMARK  128  A    between atoms: _318  and  _321
REMARK  129  A    between atoms: _321  and  _322
REMARK                            x       y       z     vdW  Elec       q    Type
REMARK                         _______ _______ _______ _____ _____    ______ ____
ROOT
ATOM      1  O   HOH     1      12.183  -9.559   3.557  0.00  0.00    +0.000 OA
ENDROOT
TORSDOF 0
REMARK  Name = ../refined-set-2016/3guz/3guz_pocket.pdb
REMARK  129 active torsions:
REMARK  status: ('A' for Active; 'I' for Inactive)
REMARK    1  A    between atoms: _1  and  _3
REMARK    2  A    between atoms: _3  and  _4
REMARK    3  A    between atoms: _3  and  _6
REMARK    4  A    between atoms: _10  and  _11
REMARK    5  A    between atoms: _16  and  _18
REMARK    6  A    between atoms: _18  and  _19
REMARK    7  A    between atoms: _18  and  _21
REMARK    8  A    between atoms: _21  and  _22
REMARK    9  A    between atoms: _25  and  _27
REMARK   10  A    between atoms: _27  and  _28
REMARK   11  A    between atoms: _27  and  _30
REMARK   12  A    between atoms: _30  and  _31
REMARK   13  A    between atoms: _31  and  _32
REMARK   14  A    between atoms: _34  and  _36
REMARK   15  A    between atoms: _36  and  _37
REMARK   16  A    between atoms: _39  and  _41
REMARK   17  A    between atoms: _41  and  _42
REMARK   18  A    between atoms: _41  and  _44
REMARK   19  A    between atoms: _44  and  _45
REMARK   20  A    between atoms: _48  and  _50
REMARK   21  A    between atoms: _50  and  _51
REMARK   22  A    between atoms: _50  and  _53
REMARK   23  A    between atoms: _53  and  _54
REMARK   24  A    between atoms: _59  and  _61
REMARK   25  A    between atoms: _61  and  _62
REMARK   26  A    between atoms: _61  and  _64
REMARK   27  A    between atoms: _64  and  _65
REMARK   28  A    between atoms: _68  and  _70
REMARK   29  A    between atoms: _70  and  _71
REMARK   30  A    between atoms: _70  and  _73
REMARK   31  A    between atoms: _73  and  _74
REMARK   32  A    between atoms: _76  and  _78
REMARK   33  A    between atoms: _78  and  _79
REMARK   34  A    between atoms: _78  and  _81
REMARK   35  A    between atoms: _81  and  _82
REMARK   36  A    between atoms: _85  and  _87
REMARK   37  A    between atoms: _87  and  _88
REMARK   38  A    between atoms: _87  and  _90
REMARK   39  A    between atoms: _90  and  _91
REMARK   40  A    between atoms: _97  and  _99
REMARK   41  A    between atoms: _99  and  _100
REMARK   42  A    between atoms: _99  and  _102
REMARK   43  A    between atoms: _105  and  _107
REMARK   44  A    between atoms: _107  and  _108
REMARK   45  A    between atoms: _107  and  _110
REMARK   46  A    between atoms: _110  and  _111
REMARK   47  A    between atoms: _117  and  _118
REMARK   48  A    between atoms: _123  and  _125
REMARK   49  A    between atoms: _125  and  _126
REMARK   50  A    between atoms: _125  and  _128
REMARK   51  A    between atoms: _128  and  _129
REMARK   52  A    between atoms: _129  and  _130
REMARK   53  A    between atoms: _132  and  _134
REMARK   54  A    between atoms: _134  and  _135
REMARK   55  A    between atoms: _134  and  _137
REMARK   56  A    between atoms: _137  and  _138
REMARK   57  A    between atoms: _138  and  _139
REMARK   58  A    between atoms: _144  and  _146
REMARK   59  A    between atoms: _146  and  _147
REMARK   60  A    between atoms: _146  and  _149
REMARK   61  A    between atoms: _149  and  _150
REMARK   62  A    between atoms: _156  and  _158
REMARK   63  A    between atoms: _158  and  _159
REMARK   64  A    between atoms: _158  and  _161
REMARK   65  A    between atoms: _161  and  _162
REMARK   66  A    between atoms: _167  and  _168
REMARK   67  A    between atoms: _170  and  _172
REMARK   68  A    between atoms: _172  and  _173
REMARK   69  A    between atoms: _172  and  _175
REMARK   70  A    between atoms: _175  and  _176
REMARK   71  A    between atoms: _181  and  _182
REMARK   72  A    between atoms: _184  and  _186
REMARK   73  A    between atoms: _186  and  _187
REMARK   74  A    between atoms: _186  and  _189
REMARK   75  A    between atoms: _189  and  _190
REMARK   76  A    between atoms: _195  and  _197
REMARK   77  A    between atoms: _197  and  _198
REMARK   78  A    between atoms: _197  and  _200
REMARK   79  A    between atoms: _200  and  _201
REMARK   80  A    between atoms: _207  and  _209
REMARK   81  A    between atoms: _209  and  _210
REMARK   82  A    between atoms: _212  and  _214
REMARK   83  A    between atoms: _214  and  _215
REMARK   84  A    between atoms: _214  and  _217
REMARK   85  A    between atoms: _220  and  _222
REMARK   86  A    between atoms: _222  and  _223
REMARK   87  A    between atoms: _222  and  _225
REMARK   88  A    between atoms: _225  and  _226
REMARK   89  A    between atoms: _228  and  _230
REMARK   90  A    between atoms: _230  and  _231
REMARK   91  A    between atoms: _230  and  _233
REMARK   92  A    between atoms: _233  and  _234
REMARK   93  A    between atoms: _237  and  _239
REMARK   94  A    between atoms: _239  and  _240
REMARK   95  A    between atoms: _239  and  _242
REMARK   96  A    between atoms: _242  and  _243
REMARK   97  A    between atoms: _246  and  _248
REMARK   98  A    between atoms: _248  and  _249
REMARK   99  A    between atoms: _248  and  _251
REMARK  100  A    between atoms: _254  and  _256
REMARK  101  A    between atoms: _256  and  _257
REMARK  102  A    between atoms: _256  and  _259
REMARK  103  A    between atoms: _259  and  _260
REMARK  104  A    between atoms: _262  and  _264
REMARK  105  A    between atoms: _264  and  _265
REMARK  106  A    between atoms: _264  and  _267
REMARK  107  A    between atoms: _267  and  _268
REMARK  108  A    between atoms: _271  and  _273
REMARK  109  A    between atoms: _273  and  _274
REMARK  110  A    between atoms: _273  and  _276
REMARK  111  A    between atoms: _278  and  _280
REMARK  112  A    between atoms: _280  and  _281
REMARK  113  A    between atoms: _280  and  _283
REMARK  114  A    between atoms: _283  and  _284
REMARK  115  A    between atoms: _290  and  _292
REMARK  116  A    between atoms: _292  and  _293
REMARK  117  A    between atoms: _295  and  _297
REMARK  118  A    between atoms: _297  and  _298
REMARK  119  A    between atoms: _297  and  _300
REMARK  120  A    between atoms: _300  and  _301
REMARK  121  A    between atoms: _304  and  _306
REMARK  122  A    between atoms: _306  and  _307
REMARK  123  A    between atoms: _306  and  _309
REMARK  124  A    between atoms: _309  and  _310
REMARK  125  A    between atoms: _310  and  _311
REMARK  126  A    between atoms: _316  and  _318
REMARK  127  A    between atoms: _318  and  _319
REMARK  128  A    between atoms: _318  and  _321
REMARK  129  A    between atoms: _321  and  _322
REMARK                            x       y       z     vdW  Elec       q    Type
REMARK                         _______ _______ _______ _____ _____    ______ ____
ROOT
ATOM      1  O   HOH     1       8.845 -12.120   4.453  0.00  0.00    +0.000 OA
ENDROOT
TORSDOF 0
REMARK  Name = ../refined-set-2016/3guz/3guz_pocket.pdb
REMARK  129 active torsions:
REMARK  status: ('A' for Active; 'I' for Inactive)
REMARK    1  A    between atoms: _1  and  _3
REMARK    2  A    between atoms: _3  and  _4
REMARK    3  A    between atoms: _3  and  _6
REMARK    4  A    between atoms: _10  and  _11
REMARK    5  A    between atoms: _16  and  _18
REMARK    6  A    between atoms: _18  and  _19
REMARK    7  A    between atoms: _18  and  _21
REMARK    8  A    between atoms: _21  and  _22
REMARK    9  A    between atoms: _25  and  _27
REMARK   10  A    between atoms: _27  and  _28
REMARK   11  A    between atoms: _27  and  _30
REMARK   12  A    between atoms: _30  and  _31
REMARK   13  A    between atoms: _31  and  _32
REMARK   14  A    between atoms: _34  and  _36
REMARK   15  A    between atoms: _36  and  _37
REMARK   16  A    between atoms: _39  and  _41
REMARK   17  A    between atoms: _41  and  _42
REMARK   18  A    between atoms: _41  and  _44
REMARK   19  A    between atoms: _44  and  _45
REMARK   20  A    between atoms: _48  and  _50
REMARK   21  A    between atoms: _50  and  _51
REMARK   22  A    between atoms: _50  and  _53
REMARK   23  A    between atoms: _53  and  _54
REMARK   24  A    between atoms: _59  and  _61
REMARK   25  A    between atoms: _61  and  _62
REMARK   26  A    between atoms: _61  and  _64
REMARK   27  A    between atoms: _64  and  _65
REMARK   28  A    between atoms: _68  and  _70
REMARK   29  A    between atoms: _70  and  _71
REMARK   30  A    between atoms: _70  and  _73
REMARK   31  A    between atoms: _73  and  _74
REMARK   32  A    between atoms: _76  and  _78
REMARK   33  A    between atoms: _78  and  _79
REMARK   34  A    between atoms: _78  and  _81
REMARK   35  A    between atoms: _81  and  _82
REMARK   36  A    between atoms: _85  and  _87
REMARK   37  A    between atoms: _87  and  _88
REMARK   38  A    between atoms: _87  and  _90
REMARK   39  A    between atoms: _90  and  _91
REMARK   40  A    between atoms: _97  and  _99
REMARK   41  A    between atoms: _99  and  _100
REMARK   42  A    between atoms: _99  and  _102
REMARK   43  A    between atoms: _105  and  _107
REMARK   44  A    between atoms: _107  and  _108
REMARK   45  A    between atoms: _107  and  _110
REMARK   46  A    between atoms: _110  and  _111
REMARK   47  A    between atoms: _117  and  _118
REMARK   48  A    between atoms: _123  and  _125
REMARK   49  A    between atoms: _125  and  _126
REMARK   50  A    between atoms: _125  and  _128
REMARK   51  A    between atoms: _128  and  _129
REMARK   52  A    between atoms: _129  and  _130
REMARK   53  A    between atoms: _132  and  _134
REMARK   54  A    between atoms: _134  and  _135
REMARK   55  A    between atoms: _134  and  _137
REMARK   56  A    between atoms: _137  and  _138
REMARK   57  A    between atoms: _138  and  _139
REMARK   58  A    between atoms: _144  and  _146
REMARK   59  A    between atoms: _146  and  _147
REMARK   60  A    between atoms: _146  and  _149
REMARK   61  A    between atoms: _149  and  _150
REMARK   62  A    between atoms: _156  and  _158
REMARK   63  A    between atoms: _158  and  _159
REMARK   64  A    between atoms: _158  and  _161
REMARK   65  A    between atoms: _161  and  _162
REMARK   66  A    between atoms: _167  and  _168
REMARK   67  A    between atoms: _170  and  _172
REMARK   68  A    between atoms: _172  and  _173
REMARK   69  A    between atoms: _172  and  _175
REMARK   70  A    between atoms: _175  and  _176
REMARK   71  A    between atoms: _181  and  _182
REMARK   72  A    between atoms: _184  and  _186
REMARK   73  A    between atoms: _186  and  _187
REMARK   74  A    between atoms: _186  and  _189
REMARK   75  A    between atoms: _189  and  _190
REMARK   76  A    between atoms: _195  and  _197
REMARK   77  A    between atoms: _197  and  _198
REMARK   78  A    between atoms: _197  and  _200
REMARK   79  A    between atoms: _200  and  _201
REMARK   80  A    between atoms: _207  and  _209
REMARK   81  A    between atoms: _209  and  _210
REMARK   82  A    between atoms: _212  and  _214
REMARK   83  A    between atoms: _214  and  _215
REMARK   84  A    between atoms: _214  and  _217
REMARK   85  A    between atoms: _220  and  _222
REMARK   86  A    between atoms: _222  and  _223
REMARK   87  A    between atoms: _222  and  _225
REMARK   88  A    between atoms: _225  and  _226
REMARK   89  A    between atoms: _228  and  _230
REMARK   90  A    between atoms: _230  and  _231
REMARK   91  A    between atoms: _230  and  _233
REMARK   92  A    between atoms: _233  and  _234
REMARK   93  A    between atoms: _237  and  _239
REMARK   94  A    between atoms: _239  and  _240
REMARK   95  A    between atoms: _239  and  _242
REMARK   96  A    between atoms: _242  and  _243
REMARK   97  A    between atoms: _246  and  _248
REMARK   98  A    between atoms: _248  and  _249
REMARK   99  A    between atoms: _248  and  _251
REMARK  100  A    between atoms: _254  and  _256
REMARK  101  A    between atoms: _256  and  _257
REMARK  102  A    between atoms: _256  and  _259
REMARK  103  A    between atoms: _259  and  _260
REMARK  104  A    between atoms: _262  and  _264
REMARK  105  A    between atoms: _264  and  _265
REMARK  106  A    between atoms: _264  and  _267
REMARK  107  A    between atoms: _267  and  _268
REMARK  108  A    between atoms: _271  and  _273
REMARK  109  A    between atoms: _273  and  _274
REMARK  110  A    between atoms: _273  and  _276
REMARK  111  A    between atoms: _278  and  _280
REMARK  112  A    between atoms: _280  and  _281
REMARK  113  A    between atoms: _280  and  _283
REMARK  114  A    between atoms: _283  and  _284
REMARK  115  A    between atoms: _290  and  _292
REMARK  116  A    between atoms: _292  and  _293
REMARK  117  A    between atoms: _295  and  _297
REMARK  118  A    between atoms: _297  and  _298
REMARK  119  A    between atoms: _297  and  _300
REMARK  120  A    between atoms: _300  and  _301
REMARK  121  A    between atoms: _304  and  _306
REMARK  122  A    between atoms: _306  and  _307
REMARK  123  A    between atoms: _306  and  _309
REMARK  124  A    between atoms: _309  and  _310
REMARK  125  A    between atoms: _310  and  _311
REMARK  126  A    between atoms: _316  and  _318
REMARK  127  A    between atoms: _318  and  _319
REMARK  128  A    between atoms: _318  and  _321
REMARK  129  A    between atoms: _321  and  _322
REMARK                            x       y       z     vdW  Elec       q    Type
REMARK                         _______ _______ _______ _____ _____    ______ ____
ROOT
ATOM      1  O   HOH     1      15.148  -4.596  -0.105  0.00  0.00    +0.000 OA
ENDROOT
TORSDOF 0
REMARK  Name = ../refined-set-2016/3guz/3guz_pocket.pdb
REMARK  129 active torsions:
REMARK  status: ('A' for Active; 'I' for Inactive)
REMARK    1  A    between atoms: _1  and  _3
REMARK    2  A    between atoms: _3  and  _4
REMARK    3  A    between atoms: _3  and  _6
REMARK    4  A    between atoms: _10  and  _11
REMARK    5  A    between atoms: _16  and  _18
REMARK    6  A    between atoms: _18  and  _19
REMARK    7  A    between atoms: _18  and  _21
REMARK    8  A    between atoms: _21  and  _22
REMARK    9  A    between atoms: _25  and  _27
REMARK   10  A    between atoms: _27  and  _28
REMARK   11  A    between atoms: _27  and  _30
REMARK   12  A    between atoms: _30  and  _31
REMARK   13  A    between atoms: _31  and  _32
REMARK   14  A    between atoms: _34  and  _36
REMARK   15  A    between atoms: _36  and  _37
REMARK   16  A    between atoms: _39  and  _41
REMARK   17  A    between atoms: _41  and  _42
REMARK   18  A    between atoms: _41  and  _44
REMARK   19  A    between atoms: _44  and  _45
REMARK   20  A    between atoms: _48  and  _50
REMARK   21  A    between atoms: _50  and  _51
REMARK   22  A    between atoms: _50  and  _53
REMARK   23  A    between atoms: _53  and  _54
REMARK   24  A    between atoms: _59  and  _61
REMARK   25  A    between atoms: _61  and  _62
REMARK   26  A    between atoms: _61  and  _64
REMARK   27  A    between atoms: _64  and  _65
REMARK   28  A    between atoms: _68  and  _70
REMARK   29  A    between atoms: _70  and  _71
REMARK   30  A    between atoms: _70  and  _73
REMARK   31  A    between atoms: _73  and  _74
REMARK   32  A    between atoms: _76  and  _78
REMARK   33  A    between atoms: _78  and  _79
REMARK   34  A    between atoms: _78  and  _81
REMARK   35  A    between atoms: _81  and  _82
REMARK   36  A    between atoms: _85  and  _87
REMARK   37  A    between atoms: _87  and  _88
REMARK   38  A    between atoms: _87  and  _90
REMARK   39  A    between atoms: _90  and  _91
REMARK   40  A    between atoms: _97  and  _99
REMARK   41  A    between atoms: _99  and  _100
REMARK   42  A    between atoms: _99  and  _102
REMARK   43  A    between atoms: _105  and  _107
REMARK   44  A    between atoms: _107  and  _108
REMARK   45  A    between atoms: _107  and  _110
REMARK   46  A    between atoms: _110  and  _111
REMARK   47  A    between atoms: _117  and  _118
REMARK   48  A    between atoms: _123  and  _125
REMARK   49  A    between atoms: _125  and  _126
REMARK   50  A    between atoms: _125  and  _128
REMARK   51  A    between atoms: _128  and  _129
REMARK   52  A    between atoms: _129  and  _130
REMARK   53  A    between atoms: _132  and  _134
REMARK   54  A    between atoms: _134  and  _135
REMARK   55  A    between atoms: _134  and  _137
REMARK   56  A    between atoms: _137  and  _138
REMARK   57  A    between atoms: _138  and  _139
REMARK   58  A    between atoms: _144  and  _146
REMARK   59  A    between atoms: _146  and  _147
REMARK   60  A    between atoms: _146  and  _149
REMARK   61  A    between atoms: _149  and  _150
REMARK   62  A    between atoms: _156  and  _158
REMARK   63  A    between atoms: _158  and  _159
REMARK   64  A    between atoms: _158  and  _161
REMARK   65  A    between atoms: _161  and  _162
REMARK   66  A    between atoms: _167  and  _168
REMARK   67  A    between atoms: _170  and  _172
REMARK   68  A    between atoms: _172  and  _173
REMARK   69  A    between atoms: _172  and  _175
REMARK   70  A    between atoms: _175  and  _176
REMARK   71  A    between atoms: _181  and  _182
REMARK   72  A    between atoms: _184  and  _186
REMARK   73  A    between atoms: _186  and  _187
REMARK   74  A    between atoms: _186  and  _189
REMARK   75  A    between atoms: _189  and  _190
REMARK   76  A    between atoms: _195  and  _197
REMARK   77  A    between atoms: _197  and  _198
REMARK   78  A    between atoms: _197  and  _200
REMARK   79  A    between atoms: _200  and  _201
REMARK   80  A    between atoms: _207  and  _209
REMARK   81  A    between atoms: _209  and  _210
REMARK   82  A    between atoms: _212  and  _214
REMARK   83  A    between atoms: _214  and  _215
REMARK   84  A    between atoms: _214  and  _217
REMARK   85  A    between atoms: _220  and  _222
REMARK   86  A    between atoms: _222  and  _223
REMARK   87  A    between atoms: _222  and  _225
REMARK   88  A    between atoms: _225  and  _226
REMARK   89  A    between atoms: _228  and  _230
REMARK   90  A    between atoms: _230  and  _231
REMARK   91  A    between atoms: _230  and  _233
REMARK   92  A    between atoms: _233  and  _234
REMARK   93  A    between atoms: _237  and  _239
REMARK   94  A    between atoms: _239  and  _240
REMARK   95  A    between atoms: _239  and  _242
REMARK   96  A    between atoms: _242  and  _243
REMARK   97  A    between atoms: _246  and  _248
REMARK   98  A    between atoms: _248  and  _249
REMARK   99  A    between atoms: _248  and  _251
REMARK  100  A    between atoms: _254  and  _256
REMARK  101  A    between atoms: _256  and  _257
REMARK  102  A    between atoms: _256  and  _259
REMARK  103  A    between atoms: _259  and  _260
REMARK  104  A    between atoms: _262  and  _264
REMARK  105  A    between atoms: _264  and  _265
REMARK  106  A    between atoms: _264  and  _267
REMARK  107  A    between atoms: _267  and  _268
REMARK  108  A    between atoms: _271  and  _273
REMARK  109  A    between atoms: _273  and  _274
REMARK  110  A    between atoms: _273  and  _276
REMARK  111  A    between atoms: _278  and  _280
REMARK  112  A    between atoms: _280  and  _281
REMARK  113  A    between atoms: _280  and  _283
REMARK  114  A    between atoms: _283  and  _284
REMARK  115  A    between atoms: _290  and  _292
REMARK  116  A    between atoms: _292  and  _293
REMARK  117  A    between atoms: _295  and  _297
REMARK  118  A    between atoms: _297  and  _298
REMARK  119  A    between atoms: _297  and  _300
REMARK  120  A    between atoms: _300  and  _301
REMARK  121  A    between atoms: _304  and  _306
REMARK  122  A    between atoms: _306  and  _307
REMARK  123  A    between atoms: _306  and  _309
REMARK  124  A    between atoms: _309  and  _310
REMARK  125  A    between atoms: _310  and  _311
REMARK  126  A    between atoms: _316  and  _318
REMARK  127  A    between atoms: _318  and  _319
REMARK  128  A    between atoms: _318  and  _321
REMARK  129  A    between atoms: _321  and  _322
REMARK                            x       y       z     vdW  Elec       q    Type
REMARK                         _______ _______ _______ _____ _____    ______ ____
ROOT
ATOM      1  O   HOH     1      10.161 -10.747   2.527  0.00  0.00    +0.000 OA
ENDROOT
TORSDOF 0
